data_foo_24
_symmetry_space_group_name_H-M 'F M 3 M'
_space_group_IT_number         225
_cell_length_a                 29.33730615
_cell_length_b                 29.33730615
_cell_length_c                 29.33730615
_cell_angle_alpha              90.000000
_cell_angle_beta               90.000000
_cell_angle_gamma              90.000000
loop_
_atom_site_type_symbol
_atom_site_fract_x
_atom_site_fract_y
_atom_site_fract_z
C -2.500000000000E-01 -2.500000000000E-01 9.923206484718E-02
C -2.208528216686E-01 -2.791471783314E-01 2.372558791115E-02
C -2.500000000000E-01 -2.500000000000E-01 4.787104273758E-02
H -1.984574017197E-01 -3.015425982803E-01 4.280435371391E-02
O 2.500000000000E-01 -2.500000000000E-01 -2.500000000000E-01
O -2.229603663881E-01 -2.770396336119E-01 1.193619092979E-01
BA -2.003105364008E-01 2.003105364008E-01 -2.996894635992E-01


