data_foo_14
_symmetry_space_group_name_H-M 'F M 3 M'
_space_group_IT_number         225
_cell_length_a                 24.30048917
_cell_length_b                 24.30048917
_cell_length_c                 24.30048917
_cell_angle_alpha              90.000000
_cell_angle_beta               90.000000
_cell_angle_gamma              90.000000
loop_
_atom_site_type_symbol
_atom_site_fract_x
_atom_site_fract_y
_atom_site_fract_z
C -2.500000000000E-01 -2.500000000000E-01 1.188438307940E-01
C -2.146426173597E-01 -2.853573826403E-01 2.862274027852E-02
C -2.500000000000E-01 -2.500000000000E-01 5.741281205775E-02
H -1.876230919017E-01 -3.123769080983E-01 5.166049602199E-02
O 2.500000000000E-01 -2.500000000000E-01 -2.500000000000E-01
O -2.175432812011E-01 -2.824567187989E-01 1.435289799786E-01
BE -2.092117487382E-01 2.092117487382E-01 -2.907882512618E-01


