data_foo_15
_symmetry_space_group_name_H-M 'F M 3 M'
_space_group_IT_number         225
_cell_length_a                 27.59937917
_cell_length_b                 27.59937917
_cell_length_c                 27.59937917
_cell_angle_alpha              90.000000
_cell_angle_beta               90.000000
_cell_angle_gamma              90.000000
loop_
_atom_site_type_symbol
_atom_site_fract_x
_atom_site_fract_y
_atom_site_fract_z
C -2.500000000000E-01 -2.500000000000E-01 1.051622013089E-01
C -2.189664085307E-01 -2.810335914693E-01 2.520909110565E-02
C -2.500000000000E-01 -2.500000000000E-01 5.076483883676E-02
H -1.951548474521E-01 -3.048451525479E-01 4.546137002177E-02
O 2.500000000000E-01 -2.500000000000E-01 -2.500000000000E-01
O -2.213107758243E-01 -2.786892241757E-01 1.267425535066E-01
CA -2.034071217432E-01 2.034071217432E-01 -2.965928782568E-01


