data_foo_15
_symmetry_space_group_name_H-M 'F M 3 M'
_space_group_IT_number         225
_cell_length_a                 27.37246151
_cell_length_b                 27.37246151
_cell_length_c                 27.37246151
_cell_angle_alpha              90.000000
_cell_angle_beta               90.000000
_cell_angle_gamma              90.000000
loop_
_atom_site_type_symbol
_atom_site_fract_x
_atom_site_fract_y
_atom_site_fract_z
C -2.500000000000E-01 -2.500000000000E-01 1.060951582634E-01
C -2.186914889676E-01 -2.813085110324E-01 2.541988400510E-02
C -2.500000000000E-01 -2.500000000000E-01 5.114576968932E-02
H -1.946630961891E-01 -3.053369038109E-01 4.577801258770E-02
O 2.500000000000E-01 -2.500000000000E-01 -2.500000000000E-01
O -2.207568060517E-01 -2.792431939483E-01 1.270612648287E-01
CD -2.040422075824E-01 2.040422075824E-01 -2.959577924176E-01


