data_foo_11
_symmetry_space_group_name_H-M 'F M 3 M'
_space_group_IT_number         225
_cell_length_a                 25.98741082
_cell_length_b                 25.98741082
_cell_length_c                 25.98741082
_cell_angle_alpha              90.000000
_cell_angle_beta               90.000000
_cell_angle_gamma              90.000000
loop_
_atom_site_type_symbol
_atom_site_fract_x
_atom_site_fract_y
_atom_site_fract_z
C -2.500000000000E-01 -2.500000000000E-01 1.114242104406E-01
C -2.170068717921E-01 -2.829931282079E-01 2.676895888252E-02
C -2.500000000000E-01 -2.500000000000E-01 5.383739338335E-02
H -1.917127580555E-01 -3.082872419445E-01 4.825046392610E-02
O 2.500000000000E-01 -2.500000000000E-01 -2.500000000000E-01
O -2.194852730896E-01 -2.805147269104E-01 1.342650375101E-01
MG -2.064536493783E-01 2.064536493783E-01 -2.935463506217E-01


