data_foo_21
_symmetry_space_group_name_H-M 'F M 3 M'
_space_group_IT_number         225
_cell_length_a                 28.37038855
_cell_length_b                 28.37038855
_cell_length_c                 28.37038855
_cell_angle_alpha              90.000000
_cell_angle_beta               90.000000
_cell_angle_gamma              90.000000
loop_
_atom_site_type_symbol
_atom_site_fract_x
_atom_site_fract_y
_atom_site_fract_z
C -2.500000000000E-01 -2.500000000000E-01 1.024800905237E-01
C -2.198445851223E-01 -2.801554148777E-01 2.452988422976E-02
C -2.500000000000E-01 -2.500000000000E-01 4.946457098088E-02
H -1.966836589780E-01 -3.033163410220E-01 4.424595611317E-02
O 2.500000000000E-01 -2.500000000000E-01 -2.500000000000E-01
O -2.220725478145E-01 -2.779274521855E-01 1.233783491819E-01
SR -2.019500467770E-01 2.019500467770E-01 -2.980499532230E-01


