data_foo_18
_symmetry_space_group_name_H-M 'F M 3 M'
_space_group_IT_number         225
_cell_length_a                 26.07000700
_cell_length_b                 26.07000700
_cell_length_c                 26.07000700
_cell_angle_alpha              90.000000
_cell_angle_beta               90.000000
_cell_angle_gamma              90.000000
loop_
_atom_site_type_symbol
_atom_site_fract_x
_atom_site_fract_y
_atom_site_fract_z
C -2.500000000000E-01 -2.500000000000E-01 1.111555663778E-01
C -2.170949560107E-01 -2.829050439893E-01 2.668417764199E-02
C -2.500000000000E-01 -2.500000000000E-01 5.363375976944E-02
H -1.918769388931E-01 -3.081230611069E-01 4.807539257941E-02
O 2.500000000000E-01 -2.500000000000E-01 -2.500000000000E-01
O -2.193336850548E-01 -2.806663149452E-01 1.333391177338E-01
ZN -2.064477460984E-01 2.064477460984E-01 -2.935522539016E-01


