data_ZIF
_cell_length_a                         15.23942
_cell_length_b                         18.26952
_cell_length_c                         15.28366
_cell_angle_alpha                      89.99916
_cell_angle_beta                       90.00002
_cell_angle_gamma                      89.99857
_space_group_name_H-M_alt              'P 1'
_space_group_IT_number                 1

loop_
_space_group_symop_operation_xyz
   'x, y, z'

loop_
   _atom_site_label
   _atom_site_occupancy
   _atom_site_fract_x
   _atom_site_fract_y
   _atom_site_fract_z
   _atom_site_adp_type
   _atom_site_B_iso_or_equiv
   _atom_site_type_symbol
   C1         1.0     0.756514      0.648218      0.865908     Biso  1.000000 C
   C2         1.0     0.243487      0.351779      0.134087     Biso  1.000000 C
   C3         1.0     0.743491      0.351779      0.365906     Biso  1.000000 C
   C4         1.0     0.256503      0.648222      0.634089     Biso  1.000000 C
   C5         1.0     0.243496      0.148216      0.634094     Biso  1.000000 C
   C6         1.0     0.756496      0.851776      0.365904     Biso  1.000000 C
   C7         1.0     0.256488      0.851780      0.134104     Biso  1.000000 C
   C8         1.0     0.743493      0.148215      0.865911     Biso  1.000000 C
   C9         1.0     0.374878      0.905529      0.087742     Biso  1.000000 C
   C10        1.0     0.625115      0.094462      0.912292     Biso  1.000000 C
   C11        1.0     0.125111      0.094464      0.587721     Biso  1.000000 C
   C12        1.0     0.874885      0.905529      0.412265     Biso  1.000000 C
   C13        1.0     0.625107      0.405531      0.412292     Biso  1.000000 C
   C14        1.0     0.374884      0.594466      0.587709     Biso  1.000000 C
   C15        1.0     0.874901      0.594475      0.912299     Biso  1.000000 C
   C16        1.0     0.125104      0.405532      0.087701     Biso  1.000000 C
   C17        1.0     0.327265      0.882445      0.016257     Biso  1.000000 C
   C18        1.0     0.672740      0.117543      0.983770     Biso  1.000000 C
   C19        1.0     0.172737      0.117544      0.516239     Biso  1.000000 C
   C20        1.0     0.827270      0.882443      0.483750     Biso  1.000000 C
   C21        1.0     0.672737      0.382445      0.483770     Biso  1.000000 C
   C22        1.0     0.327259      0.617550      0.516230     Biso  1.000000 C
   C23        1.0     0.827270      0.617561      0.983773     Biso  1.000000 C
   C24        1.0     0.172735      0.382448      0.016222     Biso  1.000000 C
   C25        1.0     0.460311      0.770473      0.325424     Biso  1.000000 C
   C26        1.0     0.539702      0.229535      0.674587     Biso  1.000000 C
   C27        1.0     0.039703      0.229529      0.825409     Biso  1.000000 C
   C28        1.0     0.960298      0.770459      0.174586     Biso  1.000000 C
   C29        1.0     0.539702      0.270475      0.174590     Biso  1.000000 C
   C30        1.0     0.460291      0.729553      0.825404     Biso  1.000000 C
   C31        1.0     0.960287      0.729534      0.674591     Biso  1.000000 C
   C32        1.0     0.039707      0.270472      0.325413     Biso  1.000000 C
   C33        1.0     0.158278      0.883268      0.340698     Biso  1.000000 C
   C34        1.0     0.841724      0.116743      0.659312     Biso  1.000000 C
   C35        1.0     0.341721      0.116741      0.840695     Biso  1.000000 C
   C36        1.0     0.658279      0.883256      0.159293     Biso  1.000000 C
   C37        1.0     0.841715      0.383259      0.159305     Biso  1.000000 C
   C38        1.0     0.158276      0.616743      0.840695     Biso  1.000000 C
   C39        1.0     0.658285      0.616738      0.659317     Biso  1.000000 C
   C40        1.0     0.341717      0.383247      0.340681     Biso  1.000000 C
   C41        1.0     0.249093      0.808171      0.403505     Biso  1.000000 C
   C42        1.0     0.750893      0.191838      0.596528     Biso  1.000000 C
   C43        1.0     0.250892      0.191837      0.903474     Biso  1.000000 C
   C44        1.0     0.749104      0.808161      0.096505     Biso  1.000000 C
   C45        1.0     0.750887      0.308160      0.096532     Biso  1.000000 C
   C46        1.0     0.249104      0.691837      0.903477     Biso  1.000000 C
   C47        1.0     0.749114      0.691834      0.596541     Biso  1.000000 C
   C48        1.0     0.250884      0.308160      0.403462     Biso  1.000000 C
   C49        1.0     0.144247      0.955966      0.889383     Biso  1.000000 C
   C50        1.0     0.855793      0.044009      0.110590     Biso  1.000000 C
   C51        1.0     0.355751      0.044024      0.389385     Biso  1.000000 C
   C52        1.0     0.644259      0.955967      0.610621     Biso  1.000000 C
   C53        1.0     0.855756      0.455964      0.610630     Biso  1.000000 C
   C54        1.0     0.144245      0.544041      0.389371     Biso  1.000000 C
   C55        1.0     0.644248      0.544038      0.110631     Biso  1.000000 C
   C56        1.0     0.355749      0.455972      0.889378     Biso  1.000000 C
   C57        1.0     0.110374      0.668061      0.886329     Biso  1.000000 C
   C58        1.0     0.889616      0.331936      0.113673     Biso  1.000000 C
   C59        1.0     0.389613      0.331929      0.386315     Biso  1.000000 C
   C60        1.0     0.610385      0.668055      0.613681     Biso  1.000000 C
   C61        1.0     0.889625      0.168062      0.613675     Biso  1.000000 C
   C62        1.0     0.110365      0.831957      0.386331     Biso  1.000000 C
   C63        1.0     0.610375      0.831936      0.113666     Biso  1.000000 C
   C64        1.0     0.389623      0.168059      0.886327     Biso  1.000000 C
   C65        1.0     0.004912      0.864453      0.099745     Biso  1.000000 C
   C66        1.0     0.995083      0.135541      0.900259     Biso  1.000000 C
   C67        1.0     0.495085      0.135543      0.599744     Biso  1.000000 C
   C68        1.0     0.504919      0.864461      0.400277     Biso  1.000000 C
   C69        1.0     0.995079      0.364466      0.400247     Biso  1.000000 C
   C70        1.0     0.004914      0.635543      0.599749     Biso  1.000000 C
   C71        1.0     0.504915      0.635551      0.900235     Biso  1.000000 C
   C72        1.0     0.495078      0.364462      0.099739     Biso  1.000000 C
   C73        1.0     0.023569      0.747360      0.116453     Biso  1.000000 C
   C74        1.0     0.976431      0.252634      0.883541     Biso  1.000000 C
   C75        1.0     0.476428      0.252638      0.616451     Biso  1.000000 C
   C76        1.0     0.523585      0.747370      0.383559     Biso  1.000000 C
   C77        1.0     0.976436      0.247371      0.383546     Biso  1.000000 C
   C78        1.0     0.023556      0.752638      0.616455     Biso  1.000000 C
   C79        1.0     0.523569      0.752646      0.883537     Biso  1.000000 C
   C80        1.0     0.476436      0.247367      0.116456     Biso  1.000000 C
   C81        1.0     0.403628      0.064784      0.257726     Biso  1.000000 C
   C82        1.0     0.596376      0.935209      0.742277     Biso  1.000000 C
   C83        1.0     0.096379      0.935207      0.757720     Biso  1.000000 C
   C84        1.0     0.903627      0.064787      0.242259     Biso  1.000000 C
   C85        1.0     0.596362      0.564817      0.242282     Biso  1.000000 C
   C86        1.0     0.403626      0.435212      0.757720     Biso  1.000000 C
   C87        1.0     0.903641      0.435183      0.742281     Biso  1.000000 C
   C88        1.0     0.096366      0.564819      0.257718     Biso  1.000000 C
   C89        1.0     0.095343      0.870306      0.803519     Biso  1.000000 C
   C90        1.0     0.904713      0.129676      0.196432     Biso  1.000000 C
   C91        1.0     0.404665      0.129685      0.303527     Biso  1.000000 C
   C92        1.0     0.595349      0.870308      0.696482     Biso  1.000000 C
   C93        1.0     0.904672      0.370288      0.696471     Biso  1.000000 C
   C94        1.0     0.095335      0.629716      0.303525     Biso  1.000000 C
   C95        1.0     0.595329      0.629713      0.196468     Biso  1.000000 C
   C96        1.0     0.404657      0.370309      0.803518     Biso  1.000000 C
   H1         1.0     0.039911      0.674460      0.893160     Biso  1.000000 H
   H2         1.0     0.960081      0.325535      0.106843     Biso  1.000000 H
   H3         1.0     0.460078      0.325521      0.393147     Biso  1.000000 H
   H4         1.0     0.539921      0.674449      0.606840     Biso  1.000000 H
   H5         1.0     0.960087      0.174460      0.606843     Biso  1.000000 H
   H6         1.0     0.039901      0.825577      0.393177     Biso  1.000000 H
   H7         1.0     0.539911      0.825534      0.106846     Biso  1.000000 H
   H8         1.0     0.460086      0.174458      0.893158     Biso  1.000000 H
   H9         1.0     0.011635      0.920093      0.075560     Biso  1.000000 H
   H10        1.0     0.988355      0.079902      0.924453     Biso  1.000000 H
   H11        1.0     0.488360      0.079904      0.575558     Biso  1.000000 H
   H12        1.0     0.511640      0.920095      0.424478     Biso  1.000000 H
   H13        1.0     0.988350      0.420107      0.424424     Biso  1.000000 H
   H14        1.0     0.011643      0.579904      0.575566     Biso  1.000000 H
   H15        1.0     0.511631      0.579905      0.924405     Biso  1.000000 H
   H16        1.0     0.488347      0.420098      0.075545     Biso  1.000000 H
   H17        1.0     0.050737      0.693322      0.104921     Biso  1.000000 H
   H18        1.0     0.949265      0.306672      0.895065     Biso  1.000000 H
   H19        1.0     0.449264      0.306675      0.604924     Biso  1.000000 H
   H20        1.0     0.550750      0.693332      0.395082     Biso  1.000000 H
   H21        1.0     0.949271      0.193334      0.395076     Biso  1.000000 H
   H22        1.0     0.050717      0.806677      0.604927     Biso  1.000000 H
   H23        1.0     0.550743      0.806678      0.895076     Biso  1.000000 H
   H24        1.0     0.449277      0.193328      0.104932     Biso  1.000000 H
   H25        1.0     0.062907      0.065695      0.590722     Biso  1.000000 H
   H26        1.0     0.937085      0.934302      0.409262     Biso  1.000000 H
   H27        1.0     0.437082      0.934302      0.090740     Biso  1.000000 H
   H28        1.0     0.562910      0.065690      0.909297     Biso  1.000000 H
   H29        1.0     0.937106      0.565702      0.909311     Biso  1.000000 H
   H30        1.0     0.062900      0.434303      0.090692     Biso  1.000000 H
   H31        1.0     0.562904      0.434303      0.409300     Biso  1.000000 H
   H32        1.0     0.437087      0.565692      0.590708     Biso  1.000000 H
   H33        1.0     0.421402      0.053313      0.190357     Biso  1.000000 H
   H34        1.0     0.578592      0.946683      0.809643     Biso  1.000000 H
   H35        1.0     0.078601      0.946679      0.690351     Biso  1.000000 H
   H36        1.0     0.921384      0.053323      0.309636     Biso  1.000000 H
   H37        1.0     0.578578      0.553364      0.309651     Biso  1.000000 H
   H38        1.0     0.421403      0.446681      0.690352     Biso  1.000000 H
   H39        1.0     0.921427      0.446638      0.809650     Biso  1.000000 H
   H40        1.0     0.078580      0.553362      0.190349     Biso  1.000000 H
   H41        1.0     0.076611      0.815685      0.782799     Biso  1.000000 H
   H42        1.0     0.923423      0.184300      0.217158     Biso  1.000000 H
   H43        1.0     0.423400      0.184305      0.282809     Biso  1.000000 H
   H44        1.0     0.576618      0.815685      0.717203     Biso  1.000000 H
   H45        1.0     0.923401      0.315663      0.717180     Biso  1.000000 H
   H46        1.0     0.076606      0.684340      0.282814     Biso  1.000000 H
   H47        1.0     0.576598      0.684337      0.217174     Biso  1.000000 H
   H48        1.0     0.423390      0.315688      0.782801     Biso  1.000000 H
   H49        1.0     0.159100      0.112049      0.446872     Biso  1.000000 H
   H50        1.0     0.840914      0.887934      0.553118     Biso  1.000000 H
   H51        1.0     0.340905      0.887935      0.946886     Biso  1.000000 H
   H52        1.0     0.659109      0.112050      0.053141     Biso  1.000000 H
   H53        1.0     0.840899      0.612077      0.053144     Biso  1.000000 H
   H54        1.0     0.159106      0.387939      0.946853     Biso  1.000000 H
   H55        1.0     0.659108      0.387933      0.553140     Biso  1.000000 H
   H56        1.0     0.340890      0.612060      0.446860     Biso  1.000000 H
   H57        1.0     0.190469      0.281699      0.423995     Biso  1.000000 H
   H58        1.0     0.809526      0.718296      0.576005     Biso  1.000000 H
   H59        1.0     0.309512      0.718302      0.924014     Biso  1.000000 H
   H60        1.0     0.690477      0.281696      0.075994     Biso  1.000000 H
   H61        1.0     0.809510      0.781692      0.075962     Biso  1.000000 H
   H62        1.0     0.190484      0.218304      0.924013     Biso  1.000000 H
   H63        1.0     0.690484      0.218304      0.575991     Biso  1.000000 H
   H64        1.0     0.309495      0.781710      0.424067     Biso  1.000000 H
   H65        1.0     0.077571      0.260180      0.777736     Biso  1.000000 H
   H66        1.0     0.922433      0.739802      0.222261     Biso  1.000000 H
   H67        1.0     0.422442      0.739820      0.277751     Biso  1.000000 H
   H68        1.0     0.577568      0.260188      0.722259     Biso  1.000000 H
   H69        1.0     0.922419      0.760188      0.722265     Biso  1.000000 H
   H70        1.0     0.077580      0.239815      0.277745     Biso  1.000000 H
   H71        1.0     0.577572      0.239824      0.222267     Biso  1.000000 H
   H72        1.0     0.422431      0.760218      0.777738     Biso  1.000000 H
   H73        1.0     0.671459      0.983730      0.553903     Biso  1.000000 H
   H74        1.0     0.328559      0.016258      0.446104     Biso  1.000000 H
   H75        1.0     0.828579      0.016245      0.053882     Biso  1.000000 H
   H76        1.0     0.171439      0.983731      0.946098     Biso  1.000000 H
   H77        1.0     0.328553      0.483737      0.946096     Biso  1.000000 H
   H78        1.0     0.671453      0.516261      0.053929     Biso  1.000000 H
   H79        1.0     0.171447      0.516267      0.446079     Biso  1.000000 H
   H80        1.0     0.828554      0.483739      0.553925     Biso  1.000000 H
   H81        1.0     0.793675      0.330093      0.322621     Biso  1.000000 H
   H82        1.0     0.206316      0.669911      0.677371     Biso  1.000000 H
   H83        1.0     0.706330      0.669898      0.822617     Biso  1.000000 H
   H84        1.0     0.293672      0.330094      0.177374     Biso  1.000000 H
   H85        1.0     0.206299      0.830092      0.177384     Biso  1.000000 H
   H86        1.0     0.793683      0.169898      0.822626     Biso  1.000000 H
   H87        1.0     0.293685      0.169899      0.677375     Biso  1.000000 H
   H88        1.0     0.706313      0.830082      0.322623     Biso  1.000000 H
   H89        1.0     0.636299      0.928921      0.199069     Biso  1.000000 H
   H90        1.0     0.363706      0.071075      0.800922     Biso  1.000000 H
   H91        1.0     0.863712      0.071078      0.699086     Biso  1.000000 H
   H92        1.0     0.136304      0.928929      0.300915     Biso  1.000000 H
   H93        1.0     0.363705      0.428915      0.300906     Biso  1.000000 H
   H94        1.0     0.636304      0.571072      0.699091     Biso  1.000000 H
   H95        1.0     0.136293      0.571078      0.800921     Biso  1.000000 H
   H96        1.0     0.863699      0.428925      0.199074     Biso  1.000000 H
   N1         1.0     0.168651      0.715432      0.926091     Biso  1.000000 N
   N2         1.0     0.831343      0.284563      0.073917     Biso  1.000000 N
   N3         1.0     0.331337      0.284563      0.426080     Biso  1.000000 N
   N4         1.0     0.668659      0.715429      0.573920     Biso  1.000000 N
   N5         1.0     0.831348      0.215434      0.573911     Biso  1.000000 N
   N6         1.0     0.168631      0.784600      0.426116     Biso  1.000000 N
   N7         1.0     0.668648      0.784564      0.073901     Biso  1.000000 N
   N8         1.0     0.331348      0.215433      0.926088     Biso  1.000000 N
   N9         1.0     0.625714      0.615966      0.113043     Biso  1.000000 N
   N10        1.0     0.374279      0.384040      0.886950     Biso  1.000000 N
   N11        1.0     0.874287      0.384034      0.613046     Biso  1.000000 N
   N12        1.0     0.125715      0.615969      0.386953     Biso  1.000000 N
   N13        1.0     0.374284      0.115955      0.386956     Biso  1.000000 N
   N14        1.0     0.625727      0.884037      0.613052     Biso  1.000000 N
   N15        1.0     0.125716      0.884040      0.886950     Biso  1.000000 N
   N16        1.0     0.874375      0.115925      0.112989     Biso  1.000000 N
   N17        1.0     0.551524      0.692650      0.930738     Biso  1.000000 N
   N18        1.0     0.448479      0.307348      0.069249     Biso  1.000000 N
   N19        1.0     0.948480      0.307354      0.430743     Biso  1.000000 N
   N20        1.0     0.051504      0.692658      0.569254     Biso  1.000000 N
   N21        1.0     0.448479      0.192653      0.569252     Biso  1.000000 N
   N22        1.0     0.551522      0.807355      0.430781     Biso  1.000000 N
   N23        1.0     0.051519      0.807346      0.069253     Biso  1.000000 N
   N24        1.0     0.948480      0.192652      0.930745     Biso  1.000000 N
   N25        1.0     0.170504      0.114168      0.662301     Biso  1.000000 N
   N26        1.0     0.829490      0.885830      0.337693     Biso  1.000000 N
   N27        1.0     0.329483      0.885834      0.162315     Biso  1.000000 N
   N28        1.0     0.670502      0.114165      0.837706     Biso  1.000000 N
   N29        1.0     0.829512      0.614167      0.837712     Biso  1.000000 N
   N30        1.0     0.170492      0.385832      0.162286     Biso  1.000000 N
   N31        1.0     0.670497      0.385831      0.337706     Biso  1.000000 N
   N32        1.0     0.329495      0.614169      0.662294     Biso  1.000000 N
   N33        1.0     0.247781      0.151492      0.546346     Biso  1.000000 N
   N34        1.0     0.752222      0.848498      0.453652     Biso  1.000000 N
   N35        1.0     0.252213      0.848500      0.046347     Biso  1.000000 N
   N36        1.0     0.747784      0.151494      0.953662     Biso  1.000000 N
   N37        1.0     0.752220      0.651500      0.953654     Biso  1.000000 N
   N38        1.0     0.247782      0.348501      0.046336     Biso  1.000000 N
   N39        1.0     0.747784      0.348499      0.453658     Biso  1.000000 N
   N40        1.0     0.252213      0.651500      0.546338     Biso  1.000000 N
   N41        1.0     0.127485      0.989319      0.812638     Biso  1.000000 N
   N42        1.0     0.872511      0.010674      0.187354     Biso  1.000000 N
   N43        1.0     0.372516      0.010673      0.312642     Biso  1.000000 N
   N44        1.0     0.627486      0.989322      0.687361     Biso  1.000000 N
   N45        1.0     0.872526      0.489307      0.687376     Biso  1.000000 N
   N46        1.0     0.127478      0.510695      0.312626     Biso  1.000000 N
   N47        1.0     0.627478      0.510693      0.187378     Biso  1.000000 N
   N48        1.0     0.372517      0.489325      0.812636     Biso  1.000000 N
   N49        1.0     0.051132      0.155149      0.836470     Biso  1.000000 N
   N50        1.0     0.948864      0.844840      0.163535     Biso  1.000000 N
   N51        1.0     0.448873      0.844850      0.336481     Biso  1.000000 N
   N52        1.0     0.551134      0.155155      0.663533     Biso  1.000000 N
   N53        1.0     0.948863      0.655154      0.663539     Biso  1.000000 N
   N54        1.0     0.051134      0.344851      0.336461     Biso  1.000000 N
   N55        1.0     0.551129      0.344852      0.163531     Biso  1.000000 N
   N56        1.0     0.448859      0.655170      0.836453     Biso  1.000000 N
   N57        1.0     0.253680      0.132281      0.851812     Biso  1.000000 N
   N58        1.0     0.746319      0.867717      0.148171     Biso  1.000000 N
   N59        1.0     0.246316      0.867718      0.351828     Biso  1.000000 N
   N60        1.0     0.753682      0.132282      0.648193     Biso  1.000000 N
   N61        1.0     0.746326      0.632276      0.648202     Biso  1.000000 N
   N62        1.0     0.253674      0.367719      0.351798     Biso  1.000000 N
   N63        1.0     0.753674      0.367719      0.148190     Biso  1.000000 N
   N64        1.0     0.246318      0.632280      0.851810     Biso  1.000000 N
   Zn1        1.0     0.147491      0.811539      0.981612     Biso  1.000000 Zn
   Zn2        1.0     0.852512      0.188460      0.018388     Biso  1.000000 Zn
   Zn3        1.0     0.352506      0.188457      0.481607     Biso  1.000000 Zn
   Zn4        1.0     0.647502      0.811536      0.518401     Biso  1.000000 Zn
   Zn5        1.0     0.852512      0.311538      0.518389     Biso  1.000000 Zn
   Zn6        1.0     0.147482      0.688466      0.481612     Biso  1.000000 Zn
   Zn7        1.0     0.647486      0.688459      0.018379     Biso  1.000000 Zn
   Zn8        1.0     0.352510      0.311538      0.981604     Biso  1.000000 Zn
   Zn9        1.0     0.148142      0.405880      0.287869     Biso  1.000000 Zn
   Zn10       1.0     0.851864      0.594121      0.712130     Biso  1.000000 Zn
   Zn11       1.0     0.351850      0.594138      0.787878     Biso  1.000000 Zn
   Zn12       1.0     0.648139      0.405876      0.212123     Biso  1.000000 Zn
   Zn13       1.0     0.851842      0.905862      0.212105     Biso  1.000000 Zn
   Zn14       1.0     0.148149      0.094132      0.787886     Biso  1.000000 Zn
   Zn15       1.0     0.648150      0.094132      0.712119     Biso  1.000000 Zn
   Zn16       1.0     0.351850      0.905862      0.287898     Biso  1.000000 Zn
