data_ZIF
_cell_length_a                         15.40420
_cell_length_b                         18.43790
_cell_length_c                         15.42310
_cell_angle_alpha                      90
_cell_angle_beta                       90
_cell_angle_gamma                      90
_space_group_name_H-M_alt              'P 1'
_space_group_IT_number                 1

loop_
_space_group_symop_operation_xyz
   'x, y, z'

loop_
   _atom_site_label
   _atom_site_occupancy
   _atom_site_fract_x
   _atom_site_fract_y
   _atom_site_fract_z
   _atom_site_adp_type
   _atom_site_B_iso_or_equiv
   _atom_site_type_symbol
   C1         1.0     0.756675      0.648044      0.865930     Biso  1.000000 C
   C2         1.0     0.243342      0.351948      0.134067     Biso  1.000000 C
   C3         1.0     0.743353      0.351951      0.365933     Biso  1.000000 C
   C4         1.0     0.256633      0.648054      0.634061     Biso  1.000000 C
   C5         1.0     0.243365      0.148035      0.634075     Biso  1.000000 C
   C6         1.0     0.756644      0.851939      0.365910     Biso  1.000000 C
   C7         1.0     0.256619      0.851949      0.134069     Biso  1.000000 C
   C8         1.0     0.743357      0.148033      0.865926     Biso  1.000000 C
   C9         1.0     0.373600      0.905264      0.088014     Biso  1.000000 C
   C10        1.0     0.626378      0.094724      0.912008     Biso  1.000000 C
   C11        1.0     0.126385      0.094725      0.588014     Biso  1.000000 C
   C12        1.0     0.873618      0.905257      0.411976     Biso  1.000000 C
   C13        1.0     0.626385      0.405267      0.412017     Biso  1.000000 C
   C14        1.0     0.373606      0.594735      0.587993     Biso  1.000000 C
   C15        1.0     0.873650      0.594735      0.912011     Biso  1.000000 C
   C16        1.0     0.126379      0.405267      0.087977     Biso  1.000000 C
   C17        1.0     0.326435      0.882322      0.017215     Biso  1.000000 C
   C18        1.0     0.673571      0.117660      0.982799     Biso  1.000000 C
   C19        1.0     0.173561      0.117659      0.517216     Biso  1.000000 C
   C20        1.0     0.826447      0.882316      0.482773     Biso  1.000000 C
   C21        1.0     0.673565      0.382325      0.482802     Biso  1.000000 C
   C22        1.0     0.326433      0.617670      0.517201     Biso  1.000000 C
   C23        1.0     0.826461      0.617671      0.982801     Biso  1.000000 C
   C24        1.0     0.173564      0.382327      0.017192     Biso  1.000000 C
   C25        1.0     0.460221      0.771080      0.326704     Biso  1.000000 C
   C26        1.0     0.539796      0.228919      0.673316     Biso  1.000000 C
   C27        1.0     0.039793      0.228918      0.826674     Biso  1.000000 C
   C28        1.0     0.960211      0.771078      0.173312     Biso  1.000000 C
   C29        1.0     0.539796      0.271088      0.173317     Biso  1.000000 C
   C30        1.0     0.460209      0.728927      0.826678     Biso  1.000000 C
   C31        1.0     0.960200      0.728915      0.673317     Biso  1.000000 C
   C32        1.0     0.039795      0.271077      0.326683     Biso  1.000000 C
   C33        1.0     0.159002      0.882554      0.340856     Biso  1.000000 C
   C34        1.0     0.840993      0.117483      0.659139     Biso  1.000000 C
   C35        1.0     0.340990      0.117481      0.840864     Biso  1.000000 C
   C36        1.0     0.659014      0.882512      0.159132     Biso  1.000000 C
   C37        1.0     0.840987      0.382516      0.159132     Biso  1.000000 C
   C38        1.0     0.159010      0.617479      0.840856     Biso  1.000000 C
   C39        1.0     0.659010      0.617466      0.659144     Biso  1.000000 C
   C40        1.0     0.340991      0.382505      0.340863     Biso  1.000000 C
   C41        1.0     0.248986      0.808241      0.402964     Biso  1.000000 C
   C42        1.0     0.750967      0.191813      0.597118     Biso  1.000000 C
   C43        1.0     0.250973      0.191819      0.902883     Biso  1.000000 C
   C44        1.0     0.749030      0.808177      0.097103     Biso  1.000000 C
   C45        1.0     0.750964      0.308182      0.097116     Biso  1.000000 C
   C46        1.0     0.249026      0.691814      0.902882     Biso  1.000000 C
   C47        1.0     0.749032      0.691794      0.597115     Biso  1.000000 C
   C48        1.0     0.250973      0.308171      0.402883     Biso  1.000000 C
   C49        1.0     0.144145      0.955611      0.889165     Biso  1.000000 C
   C50        1.0     0.855855      0.044372      0.110818     Biso  1.000000 C
   C51        1.0     0.355855      0.044370      0.389181     Biso  1.000000 C
   C52        1.0     0.644169      0.955606      0.610812     Biso  1.000000 C
   C53        1.0     0.855880      0.455606      0.610887     Biso  1.000000 C
   C54        1.0     0.144129      0.544416      0.389119     Biso  1.000000 C
   C55        1.0     0.644140      0.544400      0.110879     Biso  1.000000 C
   C56        1.0     0.355855      0.455626      0.889164     Biso  1.000000 C
   C57        1.0     0.111770      0.668264      0.886381     Biso  1.000000 C
   C58        1.0     0.888224      0.331721      0.113610     Biso  1.000000 C
   C59        1.0     0.388230      0.331709      0.386375     Biso  1.000000 C
   C60        1.0     0.611774      0.668257      0.613610     Biso  1.000000 C
   C61        1.0     0.888228      0.168277      0.613615     Biso  1.000000 C
   C62        1.0     0.111740      0.831811      0.386434     Biso  1.000000 C
   C63        1.0     0.611772      0.831720      0.113611     Biso  1.000000 C
   C64        1.0     0.388233      0.168272      0.886384     Biso  1.000000 C
   C65        1.0     0.004998      0.864239      0.099679     Biso  1.000000 C
   C66        1.0     0.995001      0.135758      0.900311     Biso  1.000000 C
   C67        1.0     0.495005      0.135756      0.599683     Biso  1.000000 C
   C68        1.0     0.504983      0.864252      0.400340     Biso  1.000000 C
   C69        1.0     0.994996      0.364237      0.400309     Biso  1.000000 C
   C70        1.0     0.004998      0.635756      0.599685     Biso  1.000000 C
   C71        1.0     0.505003      0.635762      0.900303     Biso  1.000000 C
   C72        1.0     0.495003      0.364246      0.099681     Biso  1.000000 C
   C73        1.0     0.023202      0.748224      0.116042     Biso  1.000000 C
   C74        1.0     0.976796      0.251776      0.883948     Biso  1.000000 C
   C75        1.0     0.476801      0.251774      0.616043     Biso  1.000000 C
   C76        1.0     0.523211      0.748235      0.383989     Biso  1.000000 C
   C77        1.0     0.976803      0.248222      0.383949     Biso  1.000000 C
   C78        1.0     0.023194      0.751774      0.616048     Biso  1.000000 C
   C79        1.0     0.523201      0.751778      0.883945     Biso  1.000000 C
   C80        1.0     0.476803      0.248230      0.116046     Biso  1.000000 C
   C81        1.0     0.403331      0.064706      0.258771     Biso  1.000000 C
   C82        1.0     0.596677      0.935282      0.741220     Biso  1.000000 C
   C83        1.0     0.096670      0.935275      0.758754     Biso  1.000000 C
   C84        1.0     0.903333      0.064713      0.241224     Biso  1.000000 C
   C85        1.0     0.596636      0.564783      0.241270     Biso  1.000000 C
   C86        1.0     0.403333      0.435284      0.758756     Biso  1.000000 C
   C87        1.0     0.903380      0.435223      0.741277     Biso  1.000000 C
   C88        1.0     0.096633      0.564786      0.258725     Biso  1.000000 C
   C89        1.0     0.095721      0.870861      0.804012     Biso  1.000000 C
   C90        1.0     0.904277      0.129124      0.195966     Biso  1.000000 C
   C91        1.0     0.404281      0.129117      0.304029     Biso  1.000000 C
   C92        1.0     0.595742      0.870858      0.695966     Biso  1.000000 C
   C93        1.0     0.904303      0.370823      0.695992     Biso  1.000000 C
   C94        1.0     0.095708      0.629191      0.304003     Biso  1.000000 C
   C95        1.0     0.595708      0.629179      0.195979     Biso  1.000000 C
   C96        1.0     0.404282      0.370871      0.804016     Biso  1.000000 C
   H1         1.0     0.042004      0.674231      0.893392     Biso  1.000000 H
   H2         1.0     0.957988      0.325751      0.106595     Biso  1.000000 H
   H3         1.0     0.457999      0.325747      0.393385     Biso  1.000000 H
   H4         1.0     0.542007      0.674224      0.606601     Biso  1.000000 H
   H5         1.0     0.957990      0.174249      0.606602     Biso  1.000000 H
   H6         1.0     0.041968      0.825881      0.393456     Biso  1.000000 H
   H7         1.0     0.542007      0.825752      0.106602     Biso  1.000000 H
   H8         1.0     0.457995      0.174240      0.893393     Biso  1.000000 H
   H9         1.0     0.011869      0.919431      0.076022     Biso  1.000000 H
   H10        1.0     0.988129      0.080566      0.923966     Biso  1.000000 H
   H11        1.0     0.488135      0.080564      0.576027     Biso  1.000000 H
   H12        1.0     0.511828      0.919442      0.424011     Biso  1.000000 H
   H13        1.0     0.988120      0.419430      0.423962     Biso  1.000000 H
   H14        1.0     0.011874      0.580564      0.576029     Biso  1.000000 H
   H15        1.0     0.511876      0.580568      0.923952     Biso  1.000000 H
   H16        1.0     0.488128      0.419438      0.076023     Biso  1.000000 H
   H17        1.0     0.049850      0.694537      0.104852     Biso  1.000000 H
   H18        1.0     0.950153      0.305461      0.895126     Biso  1.000000 H
   H19        1.0     0.450159      0.305460      0.604854     Biso  1.000000 H
   H20        1.0     0.549873      0.694557      0.395188     Biso  1.000000 H
   H21        1.0     0.950160      0.194532      0.395138     Biso  1.000000 H
   H22        1.0     0.049839      0.805460      0.604859     Biso  1.000000 H
   H23        1.0     0.549849      0.805466      0.895134     Biso  1.000000 H
   H24        1.0     0.450160      0.194542      0.104859     Biso  1.000000 H
   H25        1.0     0.064833      0.066147      0.590524     Biso  1.000000 H
   H26        1.0     0.935170      0.933832      0.409463     Biso  1.000000 H
   H27        1.0     0.435147      0.933844      0.090532     Biso  1.000000 H
   H28        1.0     0.564831      0.066151      0.909509     Biso  1.000000 H
   H29        1.0     0.935203      0.566159      0.909508     Biso  1.000000 H
   H30        1.0     0.064827      0.433845      0.090477     Biso  1.000000 H
   H31        1.0     0.564832      0.433844      0.409514     Biso  1.000000 H
   H32        1.0     0.435157      0.566155      0.590506     Biso  1.000000 H
   H33        1.0     0.421169      0.053523      0.192004     Biso  1.000000 H
   H34        1.0     0.578834      0.946467      0.807981     Biso  1.000000 H
   H35        1.0     0.078835      0.946452      0.691989     Biso  1.000000 H
   H36        1.0     0.921176      0.053533      0.307993     Biso  1.000000 H
   H37        1.0     0.578790      0.553635      0.308042     Biso  1.000000 H
   H38        1.0     0.421173      0.446458      0.691991     Biso  1.000000 H
   H39        1.0     0.921223      0.446369      0.808048     Biso  1.000000 H
   H40        1.0     0.078790      0.553635      0.191953     Biso  1.000000 H
   H41        1.0     0.077005      0.816817      0.783213     Biso  1.000000 H
   H42        1.0     0.923003      0.183168      0.216760     Biso  1.000000 H
   H43        1.0     0.423003      0.183161      0.283229     Biso  1.000000 H
   H44        1.0     0.577007      0.816824      0.716769     Biso  1.000000 H
   H45        1.0     0.923019      0.316767      0.716754     Biso  1.000000 H
   H46        1.0     0.076986      0.683244      0.283229     Biso  1.000000 H
   H47        1.0     0.576979      0.683234      0.216747     Biso  1.000000 H
   H48        1.0     0.422994      0.316826      0.783221     Biso  1.000000 H
   H49        1.0     0.159910      0.112305      0.448460     Biso  1.000000 H
   H50        1.0     0.840104      0.887673      0.551529     Biso  1.000000 H
   H51        1.0     0.340098      0.887672      0.948460     Biso  1.000000 H
   H52        1.0     0.659936      0.112308      0.051554     Biso  1.000000 H
   H53        1.0     0.840104      0.612324      0.051561     Biso  1.000000 H
   H54        1.0     0.159923      0.387673      0.948430     Biso  1.000000 H
   H55        1.0     0.659922      0.387673      0.551562     Biso  1.000000 H
   H56        1.0     0.340085      0.612317      0.448444     Biso  1.000000 H
   H57        1.0     0.191057      0.282264      0.423341     Biso  1.000000 H
   H58        1.0     0.808945      0.717708      0.576656     Biso  1.000000 H
   H59        1.0     0.308939      0.717733      0.923341     Biso  1.000000 H
   H60        1.0     0.691051      0.282262      0.076660     Biso  1.000000 H
   H61        1.0     0.808940      0.782257      0.076636     Biso  1.000000 H
   H62        1.0     0.191060      0.217738      0.923343     Biso  1.000000 H
   H63        1.0     0.691047      0.217724      0.576667     Biso  1.000000 H
   H64        1.0     0.308880      0.782327      0.423479     Biso  1.000000 H
   H65        1.0     0.077365      0.259492      0.779665     Biso  1.000000 H
   H66        1.0     0.922638      0.740498      0.220324     Biso  1.000000 H
   H67        1.0     0.422676      0.740495      0.279682     Biso  1.000000 H
   H68        1.0     0.577369      0.259496      0.720325     Biso  1.000000 H
   H69        1.0     0.922624      0.759493      0.720325     Biso  1.000000 H
   H70        1.0     0.077374      0.240494      0.279678     Biso  1.000000 H
   H71        1.0     0.577369      0.240509      0.220327     Biso  1.000000 H
   H72        1.0     0.422636      0.759505      0.779666     Biso  1.000000 H
   H73        1.0     0.671012      0.983056      0.554551     Biso  1.000000 H
   H74        1.0     0.329008      0.016920      0.445439     Biso  1.000000 H
   H75        1.0     0.829010      0.016922      0.054560     Biso  1.000000 H
   H76        1.0     0.170990      0.983063      0.945425     Biso  1.000000 H
   H77        1.0     0.329009      0.483080      0.945421     Biso  1.000000 H
   H78        1.0     0.670984      0.516928      0.054637     Biso  1.000000 H
   H79        1.0     0.170969      0.516947      0.445367     Biso  1.000000 H
   H80        1.0     0.829035      0.483080      0.554643     Biso  1.000000 H
   H81        1.0     0.792824      0.330209      0.323030     Biso  1.000000 H
   H82        1.0     0.207158      0.669800      0.676955     Biso  1.000000 H
   H83        1.0     0.707196      0.669775      0.823029     Biso  1.000000 H
   H84        1.0     0.292816      0.330212      0.176968     Biso  1.000000 H
   H85        1.0     0.207129      0.830209      0.176950     Biso  1.000000 H
   H86        1.0     0.792828      0.169773      0.823020     Biso  1.000000 H
   H87        1.0     0.292846      0.169779      0.676967     Biso  1.000000 H
   H88        1.0     0.707160      0.830189      0.323030     Biso  1.000000 H
   H89        1.0     0.636919      0.927732      0.198443     Biso  1.000000 H
   H90        1.0     0.363089      0.072262      0.801549     Biso  1.000000 H
   H91        1.0     0.863097      0.072262      0.698450     Biso  1.000000 H
   H92        1.0     0.136913      0.927737      0.301467     Biso  1.000000 H
   H93        1.0     0.363096      0.427721      0.301536     Biso  1.000000 H
   H94        1.0     0.636907      0.572247      0.698460     Biso  1.000000 H
   H95        1.0     0.136914      0.572260      0.801536     Biso  1.000000 H
   H96        1.0     0.863094      0.427733      0.198443     Biso  1.000000 H
   N1         1.0     0.169463      0.715367      0.925735     Biso  1.000000 N
   N2         1.0     0.830527      0.284623      0.074264     Biso  1.000000 N
   N3         1.0     0.330534      0.284615      0.425717     Biso  1.000000 N
   N4         1.0     0.669469      0.715353      0.574262     Biso  1.000000 N
   N5         1.0     0.830527      0.215373      0.574266     Biso  1.000000 N
   N6         1.0     0.169413      0.784714      0.425813     Biso  1.000000 N
   N7         1.0     0.669465      0.784623      0.074256     Biso  1.000000 N
   N8         1.0     0.330536      0.215375      0.925736     Biso  1.000000 N
   N9         1.0     0.625859      0.615812      0.113170     Biso  1.000000 N
   N10        1.0     0.374141      0.384212      0.886838     Biso  1.000000 N
   N11        1.0     0.874153      0.384194      0.613189     Biso  1.000000 N
   N12        1.0     0.125871      0.615836      0.386815     Biso  1.000000 N
   N13        1.0     0.374143      0.115772      0.386868     Biso  1.000000 N
   N14        1.0     0.625898      0.884188      0.613156     Biso  1.000000 N
   N15        1.0     0.125860      0.884203      0.886833     Biso  1.000000 N
   N16        1.0     0.874139      0.115776      0.113129     Biso  1.000000 N
   N17        1.0     0.551431      0.692319      0.930603     Biso  1.000000 N
   N18        1.0     0.448576      0.307684      0.069386     Biso  1.000000 N
   N19        1.0     0.948570      0.307678      0.430607     Biso  1.000000 N
   N20        1.0     0.051424      0.692319      0.569390     Biso  1.000000 N
   N21        1.0     0.448575      0.192316      0.569386     Biso  1.000000 N
   N22        1.0     0.551420      0.807695      0.430639     Biso  1.000000 N
   N23        1.0     0.051427      0.807680      0.069384     Biso  1.000000 N
   N24        1.0     0.948573      0.192319      0.930607     Biso  1.000000 N
   N25        1.0     0.171123      0.114152      0.662224     Biso  1.000000 N
   N26        1.0     0.828877      0.885836      0.337766     Biso  1.000000 N
   N27        1.0     0.328856      0.885839      0.162223     Biso  1.000000 N
   N28        1.0     0.671112      0.114150      0.837782     Biso  1.000000 N
   N29        1.0     0.828912      0.614157      0.837791     Biso  1.000000 N
   N30        1.0     0.171106      0.385840      0.162205     Biso  1.000000 N
   N31        1.0     0.671114      0.385843      0.337790     Biso  1.000000 N
   N32        1.0     0.328873      0.614162      0.662213     Biso  1.000000 N
   N33        1.0     0.247876      0.151379      0.546982     Biso  1.000000 N
   N34        1.0     0.752142      0.848584      0.452995     Biso  1.000000 N
   N35        1.0     0.252120      0.848603      0.046976     Biso  1.000000 N
   N36        1.0     0.747881      0.151380      0.953016     Biso  1.000000 N
   N37        1.0     0.752146      0.651390      0.953023     Biso  1.000000 N
   N38        1.0     0.247870      0.348603      0.046972     Biso  1.000000 N
   N39        1.0     0.747873      0.348604      0.453025     Biso  1.000000 N
   N40        1.0     0.252122      0.651396      0.546970     Biso  1.000000 N
   N41        1.0     0.127506      0.989024      0.813189     Biso  1.000000 N
   N42        1.0     0.872495      0.010968      0.186795     Biso  1.000000 N
   N43        1.0     0.372492      0.010961      0.313204     Biso  1.000000 N
   N44        1.0     0.627514      0.989022      0.686774     Biso  1.000000 N
   N45        1.0     0.872529      0.488997      0.686873     Biso  1.000000 N
   N46        1.0     0.127478      0.511015      0.313135     Biso  1.000000 N
   N47        1.0     0.627491      0.511006      0.186866     Biso  1.000000 N
   N48        1.0     0.372495      0.489033      0.813187     Biso  1.000000 N
   N49        1.0     0.051104      0.155094      0.837411     Biso  1.000000 N
   N50        1.0     0.948896      0.844901      0.162583     Biso  1.000000 N
   N51        1.0     0.448893      0.844903      0.337428     Biso  1.000000 N
   N52        1.0     0.551107      0.155095      0.662586     Biso  1.000000 N
   N53        1.0     0.948892      0.655091      0.662586     Biso  1.000000 N
   N54        1.0     0.051106      0.344902      0.337410     Biso  1.000000 N
   N55        1.0     0.551106      0.344911      0.162585     Biso  1.000000 N
   N56        1.0     0.448895      0.655101      0.837405     Biso  1.000000 N
   N57        1.0     0.253738      0.132766      0.851498     Biso  1.000000 N
   N58        1.0     0.746266      0.867228      0.148492     Biso  1.000000 N
   N59        1.0     0.246249      0.867254      0.351512     Biso  1.000000 N
   N60        1.0     0.753738      0.132762      0.648507     Biso  1.000000 N
   N61        1.0     0.746265      0.632749      0.648510     Biso  1.000000 N
   N62        1.0     0.253736      0.367233      0.351494     Biso  1.000000 N
   N63        1.0     0.753731      0.367236      0.148502     Biso  1.000000 N
   N64        1.0     0.246263      0.632764      0.851492     Biso  1.000000 N
   Zn1        1.0     0.147732      0.811537      0.981689     Biso  1.000000 Zn
   Zn2        1.0     0.852262      0.188453      0.018293     Biso  1.000000 Zn
   Zn3        1.0     0.352263      0.188441      0.481703     Biso  1.000000 Zn
   Zn4        1.0     0.647755      0.811527      0.518299     Biso  1.000000 Zn
   Zn5        1.0     0.852264      0.311541      0.518300     Biso  1.000000 Zn
   Zn6        1.0     0.147727      0.688491      0.481698     Biso  1.000000 Zn
   Zn7        1.0     0.647747      0.688453      0.018284     Biso  1.000000 Zn
   Zn8        1.0     0.352268      0.311547      0.981695     Biso  1.000000 Zn
   Zn9        1.0     0.148180      0.405887      0.288096     Biso  1.000000 Zn
   Zn10       1.0     0.851827      0.594113      0.711906     Biso  1.000000 Zn
   Zn11       1.0     0.351808      0.594141      0.788098     Biso  1.000000 Zn
   Zn12       1.0     0.648185      0.405886      0.211904     Biso  1.000000 Zn
   Zn13       1.0     0.851806      0.905857      0.211880     Biso  1.000000 Zn
   Zn14       1.0     0.148193      0.094132      0.788113     Biso  1.000000 Zn
   Zn15       1.0     0.648190      0.094131      0.711891     Biso  1.000000 Zn
   Zn16       1.0     0.351800      0.905850      0.288115     Biso  1.000000 Zn
