data_ZIF
_cell_length_a                         14.96595
_cell_length_b                         14.65158
_cell_length_c                         15.35333
_cell_angle_alpha                      90.00157
_cell_angle_beta                       89.98920
_cell_angle_gamma                      89.99896
_space_group_name_H-M_alt              'P 1'
_space_group_IT_number                 1

loop_
_space_group_symop_operation_xyz
   'x, y, z'

loop_
   _atom_site_label
   _atom_site_occupancy
   _atom_site_fract_x
   _atom_site_fract_y
   _atom_site_fract_z
   _atom_site_adp_type
   _atom_site_B_iso_or_equiv
   _atom_site_type_symbol
   Zn1        1.0     0.268350      0.306632      0.070336     Biso  1.000000 Zn
   Zn2        1.0     0.731700      0.693343      0.929677     Biso  1.000000 Zn
   Zn3        1.0     0.231832      0.693352      0.570299     Biso  1.000000 Zn
   Zn4        1.0     0.768114      0.306677      0.429700     Biso  1.000000 Zn
   Zn5        1.0     0.731759      0.806626      0.429700     Biso  1.000000 Zn
   Zn6        1.0     0.268331      0.193350      0.570325     Biso  1.000000 Zn
   Zn7        1.0     0.768117      0.193341      0.929712     Biso  1.000000 Zn
   Zn8        1.0     0.231840      0.806639      0.070297     Biso  1.000000 Zn
   Zn9        1.0     0.986615      0.079148      0.227619     Biso  1.000000 Zn
   Zn10       1.0     0.013371      0.920855      0.772368     Biso  1.000000 Zn
   Zn11       1.0     0.513325      0.920710      0.727704     Biso  1.000000 Zn
   Zn12       1.0     0.486706      0.079250      0.272295     Biso  1.000000 Zn
   Zn13       1.0     0.013391      0.579119      0.272360     Biso  1.000000 Zn
   Zn14       1.0     0.986615      0.420852      0.727622     Biso  1.000000 Zn
   Zn15       1.0     0.486664      0.420743      0.772295     Biso  1.000000 Zn
   Zn16       1.0     0.513331      0.579293      0.227706     Biso  1.000000 Zn
   N1         1.0     0.149467      0.280004      0.120202     Biso  1.000000 N
   N2         1.0     0.850582      0.719972      0.879836     Biso  1.000000 N
   N3         1.0     0.350770      0.719872      0.620100     Biso  1.000000 N
   N4         1.0     0.649179      0.280110      0.379899     Biso  1.000000 N
   N5         1.0     0.850683      0.780007      0.379887     Biso  1.000000 N
   N6         1.0     0.149459      0.219979      0.620185     Biso  1.000000 N
   N7         1.0     0.649186      0.219898      0.879898     Biso  1.000000 N
   N8         1.0     0.350787      0.780118      0.120105     Biso  1.000000 N
   N9         1.0     0.051342      0.193846      0.192962     Biso  1.000000 N
   N10        1.0     0.948665      0.806142      0.807020     Biso  1.000000 N
   N11        1.0     0.448759      0.805895      0.693177     Biso  1.000000 N
   N12        1.0     0.551203      0.194111      0.306790     Biso  1.000000 N
   N13        1.0     0.948695      0.693830      0.306987     Biso  1.000000 N
   N14        1.0     0.051338      0.306156      0.692969     Biso  1.000000 N
   N15        1.0     0.551213      0.305912      0.806794     Biso  1.000000 N
   N16        1.0     0.448788      0.694116      0.193200     Biso  1.000000 N
   N17        1.0     0.328280      0.382612      0.163875     Biso  1.000000 N
   N18        1.0     0.671739      0.617392      0.836128     Biso  1.000000 N
   N19        1.0     0.171800      0.617390      0.663837     Biso  1.000000 N
   N20        1.0     0.827956      0.382875      0.336203     Biso  1.000000 N
   N21        1.0     0.671807      0.882605      0.336163     Biso  1.000000 N
   N22        1.0     0.328273      0.117384      0.663871     Biso  1.000000 N
   N23        1.0     0.828019      0.117225      0.836208     Biso  1.000000 N
   N24        1.0     0.171804      0.882609      0.163837     Biso  1.000000 N
   N25        1.0     0.423855      0.481169      0.224133     Biso  1.000000 N
   N26        1.0     0.576177      0.518823      0.775872     Biso  1.000000 N
   N27        1.0     0.076107      0.518943      0.724142     Biso  1.000000 N
   N28        1.0     0.923847      0.481072      0.275849     Biso  1.000000 N
   N29        1.0     0.576340      0.981264      0.275915     Biso  1.000000 N
   N30        1.0     0.423876      0.018852      0.724139     Biso  1.000000 N
   N31        1.0     0.923844      0.018931      0.775861     Biso  1.000000 N
   N32        1.0     0.076107      0.981057      0.224140     Biso  1.000000 N
   N33        1.0     0.335878      0.187387      0.076730     Biso  1.000000 N
   N34        1.0     0.664143      0.812554      0.923293     Biso  1.000000 N
   N35        1.0     0.164175      0.812535      0.576715     Biso  1.000000 N
   N36        1.0     0.835823      0.187502      0.423267     Biso  1.000000 N
   N37        1.0     0.664144      0.687443      0.423318     Biso  1.000000 N
   N38        1.0     0.335877      0.312589      0.576721     Biso  1.000000 N
   N39        1.0     0.835825      0.312507      0.923272     Biso  1.000000 N
   N40        1.0     0.164175      0.687462      0.076716     Biso  1.000000 N
   N41        1.0     0.423678      0.099899      0.160393     Biso  1.000000 N
   N42        1.0     0.576309      0.899959      0.839602     Biso  1.000000 N
   N43        1.0     0.076311      0.899943      0.660420     Biso  1.000000 N
   N44        1.0     0.923682      0.100072      0.339573     Biso  1.000000 N
   N45        1.0     0.576312      0.600041      0.339608     Biso  1.000000 N
   N46        1.0     0.423669      0.400076      0.660383     Biso  1.000000 N
   N47        1.0     0.923682      0.399928      0.839575     Biso  1.000000 N
   N48        1.0     0.076316      0.600055      0.160418     Biso  1.000000 N
   N49        1.0     0.299200      0.380079      0.966790     Biso  1.000000 N
   N50        1.0     0.700801      0.619913      0.033215     Biso  1.000000 N
   N51        1.0     0.200839      0.619873      0.466797     Biso  1.000000 N
   N52        1.0     0.799146      0.380123      0.533209     Biso  1.000000 N
   N53        1.0     0.700807      0.880083      0.533222     Biso  1.000000 N
   N54        1.0     0.299205      0.119911      0.466779     Biso  1.000000 N
   N55        1.0     0.799149      0.119877      0.033208     Biso  1.000000 N
   N56        1.0     0.200838      0.880114      0.966796     Biso  1.000000 N
   N57        1.0     0.393689      0.431697      0.865285     Biso  1.000000 N
   N58        1.0     0.606314      0.568310      0.134704     Biso  1.000000 N
   N59        1.0     0.106345      0.568195      0.365337     Biso  1.000000 N
   N60        1.0     0.893678      0.431805      0.634641     Biso  1.000000 N
   N61        1.0     0.606310      0.931692      0.634705     Biso  1.000000 N
   N62        1.0     0.393700      0.068291      0.365283     Biso  1.000000 N
   N63        1.0     0.893676      0.068192      0.134634     Biso  1.000000 N
   N64        1.0     0.106337      0.931784      0.865335     Biso  1.000000 N
   C1         1.0     0.121692      0.194638      0.138565     Biso  1.000000 C
   C2         1.0     0.878342      0.805344      0.861448     Biso  1.000000 C
   C3         1.0     0.378550      0.805205      0.638637     Biso  1.000000 C
   C4         1.0     0.621402      0.194796      0.361349     Biso  1.000000 C
   C5         1.0     0.878414      0.694629      0.361463     Biso  1.000000 C
   C6         1.0     0.121683      0.305353      0.638553     Biso  1.000000 C
   C7         1.0     0.621410      0.305216      0.861363     Biso  1.000000 C
   C8         1.0     0.378574      0.694806      0.138644     Biso  1.000000 C
   C9         1.0     0.093027      0.337481      0.165825     Biso  1.000000 C
   C10        1.0     0.907007      0.662501      0.834182     Biso  1.000000 C
   C11        1.0     0.407103      0.662305      0.665758     Biso  1.000000 C
   C12        1.0     0.592860      0.337693      0.334245     Biso  1.000000 C
   C13        1.0     0.907067      0.837479      0.334192     Biso  1.000000 C
   C14        1.0     0.093014      0.162514      0.665823     Biso  1.000000 C
   C15        1.0     0.592872      0.162322      0.834226     Biso  1.000000 C
   C16        1.0     0.407106      0.837707      0.165763     Biso  1.000000 C
   C17        1.0     0.032549      0.284235      0.210570     Biso  1.000000 C
   C18        1.0     0.967462      0.715753      0.789409     Biso  1.000000 C
   C19        1.0     0.467494      0.715473      0.710685     Biso  1.000000 C
   C20        1.0     0.532475      0.284538      0.289293     Biso  1.000000 C
   C21        1.0     0.967490      0.784223      0.289383     Biso  1.000000 C
   C22        1.0     0.032547      0.215770      0.710577     Biso  1.000000 C
   C23        1.0     0.532492      0.215489      0.789282     Biso  1.000000 C
   C24        1.0     0.467502      0.784546      0.210698     Biso  1.000000 C
   C25        1.0     0.399774      0.436416      0.151103     Biso  1.000000 C
   C26        1.0     0.600246      0.563584      0.848902     Biso  1.000000 C
   C27        1.0     0.100239      0.563667      0.651102     Biso  1.000000 C
   C28        1.0     0.899589      0.436494      0.348929     Biso  1.000000 C
   C29        1.0     0.600368      0.936476      0.348940     Biso  1.000000 C
   C30        1.0     0.399780      0.063592      0.651105     Biso  1.000000 C
   C31        1.0     0.899620      0.063549      0.848934     Biso  1.000000 C
   C32        1.0     0.100245      0.936330      0.151098     Biso  1.000000 C
   C33        1.0     0.305162      0.393389      0.250185     Biso  1.000000 C
   C34        1.0     0.694854      0.606620      0.749818     Biso  1.000000 C
   C35        1.0     0.194887      0.606613      0.750142     Biso  1.000000 C
   C36        1.0     0.804979      0.393530      0.249861     Biso  1.000000 C
   C37        1.0     0.694933      0.893345      0.249860     Biso  1.000000 C
   C38        1.0     0.305156      0.106615      0.750179     Biso  1.000000 C
   C39        1.0     0.805010      0.106521      0.749873     Biso  1.000000 C
   C40        1.0     0.194891      0.893386      0.250142     Biso  1.000000 C
   C41        1.0     0.363745      0.454558      0.287321     Biso  1.000000 C
   C42        1.0     0.636272      0.545452      0.712678     Biso  1.000000 C
   C43        1.0     0.136242      0.545519      0.787309     Biso  1.000000 C
   C44        1.0     0.863738      0.454490      0.212665     Biso  1.000000 C
   C45        1.0     0.636421      0.954587      0.212722     Biso  1.000000 C
   C46        1.0     0.363751      0.045464      0.787323     Biso  1.000000 C
   C47        1.0     0.863736      0.045522      0.712682     Biso  1.000000 C
   C48        1.0     0.136239      0.954482      0.287310     Biso  1.000000 C
   C49        1.0     0.354955      0.158876      0.157946     Biso  1.000000 C
   C50        1.0     0.645051      0.841015      0.842065     Biso  1.000000 C
   C51        1.0     0.145050      0.840990      0.657951     Biso  1.000000 C
   C52        1.0     0.854945      0.159033      0.342040     Biso  1.000000 C
   C53        1.0     0.645058      0.658982      0.342078     Biso  1.000000 C
   C54        1.0     0.354950      0.341095      0.657933     Biso  1.000000 C
   C55        1.0     0.854946      0.340970      0.842042     Biso  1.000000 C
   C56        1.0     0.145059      0.659002      0.157949     Biso  1.000000 C
   C57        1.0     0.396417      0.143034      0.023398     Biso  1.000000 C
   C58        1.0     0.603611      0.856926      0.976615     Biso  1.000000 C
   C59        1.0     0.103665      0.856912      0.523401     Biso  1.000000 C
   C60        1.0     0.896333      0.143130      0.476586     Biso  1.000000 C
   C61        1.0     0.603611      0.643074      0.476625     Biso  1.000000 C
   C62        1.0     0.396416      0.356931      0.523386     Biso  1.000000 C
   C63        1.0     0.896339      0.356877      0.976587     Biso  1.000000 C
   C64        1.0     0.103657      0.643093      0.023402     Biso  1.000000 C
   C65        1.0     0.450542      0.089459      0.074921     Biso  1.000000 C
   C66        1.0     0.549462      0.910451      0.925071     Biso  1.000000 C
   C67        1.0     0.049494      0.910439      0.574949     Biso  1.000000 C
   C68        1.0     0.950498      0.089586      0.425042     Biso  1.000000 C
   C69        1.0     0.549463      0.589551      0.425075     Biso  1.000000 C
   C70        1.0     0.450539      0.410505      0.574912     Biso  1.000000 C
   C71        1.0     0.950502      0.410416      0.925045     Biso  1.000000 C
   C72        1.0     0.049489      0.589567      0.074950     Biso  1.000000 C
   C73        1.0     0.364422      0.358619      0.909940     Biso  1.000000 C
   C74        1.0     0.635580      0.641383      0.090062     Biso  1.000000 C
   C75        1.0     0.135623      0.641295      0.409947     Biso  1.000000 C
   C76        1.0     0.864378      0.358699      0.590049     Biso  1.000000 C
   C77        1.0     0.635580      0.858617      0.590063     Biso  1.000000 C
   C78        1.0     0.364433      0.141371      0.409935     Biso  1.000000 C
   C79        1.0     0.864376      0.141296      0.090046     Biso  1.000000 C
   C80        1.0     0.135611      0.858685      0.909953     Biso  1.000000 C
   C81        1.0     0.286441      0.473195      0.958323     Biso  1.000000 C
   C82        1.0     0.713542      0.526795      0.041684     Biso  1.000000 C
   C83        1.0     0.213599      0.526756      0.458368     Biso  1.000000 C
   C84        1.0     0.786394      0.473241      0.541642     Biso  1.000000 C
   C85        1.0     0.713549      0.973199      0.541697     Biso  1.000000 C
   C86        1.0     0.286451      0.026794      0.458304     Biso  1.000000 C
   C87        1.0     0.786397      0.026757      0.041630     Biso  1.000000 C
   C88        1.0     0.213599      0.973226      0.958353     Biso  1.000000 C
   C89        1.0     0.344582      0.504716      0.895650     Biso  1.000000 C
   C90        1.0     0.655391      0.495287      0.104353     Biso  1.000000 C
   C91        1.0     0.155454      0.495197      0.395726     Biso  1.000000 C
   C92        1.0     0.844547      0.504801      0.604263     Biso  1.000000 C
   C93        1.0     0.655393      0.004711      0.604361     Biso  1.000000 C
   C94        1.0     0.344599      0.995275      0.395633     Biso  1.000000 C
   C95        1.0     0.844549      0.995193      0.104259     Biso  1.000000 C
   C96        1.0     0.155456      0.004776      0.895711     Biso  1.000000 C
   H1         1.0     0.399660      0.911356      0.163499     Biso  1.000000 H
   H2         1.0     0.600313      0.088668      0.836488     Biso  1.000000 H
   H3         1.0     0.100390      0.088853      0.663621     Biso  1.000000 H
   H4         1.0     0.899643      0.911135      0.336386     Biso  1.000000 H
   H5         1.0     0.600303      0.411350      0.336514     Biso  1.000000 H
   H6         1.0     0.399669      0.588649      0.663493     Biso  1.000000 H
   H7         1.0     0.899619      0.588846      0.836384     Biso  1.000000 H
   H8         1.0     0.100395      0.411139      0.163617     Biso  1.000000 H
   H9         1.0     0.521630      0.804316      0.253719     Biso  1.000000 H
   H10        1.0     0.478375      0.195730      0.746246     Biso  1.000000 H
   H11        1.0     0.978312      0.196105      0.753524     Biso  1.000000 H
   H12        1.0     0.021697      0.803906      0.246414     Biso  1.000000 H
   H13        1.0     0.478360      0.304309      0.246262     Biso  1.000000 H
   H14        1.0     0.521630      0.695721      0.753700     Biso  1.000000 H
   H15        1.0     0.021685      0.696078      0.746449     Biso  1.000000 H
   H16        1.0     0.978312      0.303905      0.253514     Biso  1.000000 H
   H17        1.0     0.347003      0.633676      0.113059     Biso  1.000000 H
   H18        1.0     0.652985      0.366340      0.886957     Biso  1.000000 H
   H19        1.0     0.153275      0.366440      0.612879     Biso  1.000000 H
   H20        1.0     0.846784      0.633555      0.387114     Biso  1.000000 H
   H21        1.0     0.652969      0.133669      0.386938     Biso  1.000000 H
   H22        1.0     0.346961      0.866318      0.613050     Biso  1.000000 H
   H23        1.0     0.846743      0.866433      0.887109     Biso  1.000000 H
   H24        1.0     0.153276      0.133546      0.112886     Biso  1.000000 H
   H25        1.0     0.433759      0.443857      0.088980     Biso  1.000000 H
   H26        1.0     0.566250      0.556149      0.911018     Biso  1.000000 H
   H27        1.0     0.066253      0.556239      0.588993     Biso  1.000000 H
   H28        1.0     0.933560      0.443935      0.411047     Biso  1.000000 H
   H29        1.0     0.566383      0.943955      0.411062     Biso  1.000000 H
   H30        1.0     0.433759      0.056142      0.588982     Biso  1.000000 H
   H31        1.0     0.933585      0.056086      0.911052     Biso  1.000000 H
   H32        1.0     0.066258      0.943757      0.088990     Biso  1.000000 H
   H33        1.0     0.248511      0.357666      0.278008     Biso  1.000000 H
   H34        1.0     0.751510      0.642342      0.721996     Biso  1.000000 H
   H35        1.0     0.251590      0.642277      0.777934     Biso  1.000000 H
   H36        1.0     0.748260      0.357894      0.222076     Biso  1.000000 H
   H37        1.0     0.751552      0.857557      0.222033     Biso  1.000000 H
   H38        1.0     0.248495      0.142341      0.777998     Biso  1.000000 H
   H39        1.0     0.748287      0.142148      0.722085     Biso  1.000000 H
   H40        1.0     0.251587      0.857720      0.277937     Biso  1.000000 H
   H41        1.0     0.365572      0.482121      0.352810     Biso  1.000000 H
   H42        1.0     0.634437      0.517898      0.647189     Biso  1.000000 H
   H43        1.0     0.134394      0.517979      0.852807     Biso  1.000000 H
   H44        1.0     0.865679      0.481933      0.147137     Biso  1.000000 H
   H45        1.0     0.634628      0.982159      0.147241     Biso  1.000000 H
   H46        1.0     0.365566      0.017909      0.852811     Biso  1.000000 H
   H47        1.0     0.865667      0.018063      0.647155     Biso  1.000000 H
   H48        1.0     0.134388      0.982022      0.352807     Biso  1.000000 H
   H49        1.0     0.645392      0.427009      0.129791     Biso  1.000000 H
   H50        1.0     0.354573      0.572995      0.870203     Biso  1.000000 H
   H51        1.0     0.854514      0.573108      0.629668     Biso  1.000000 H
   H52        1.0     0.145484      0.426894      0.370323     Biso  1.000000 H
   H53        1.0     0.354589      0.926995      0.370187     Biso  1.000000 H
   H54        1.0     0.645393      0.072993      0.629800     Biso  1.000000 H
   H55        1.0     0.145488      0.073075      0.870298     Biso  1.000000 H
   H56        1.0     0.854514      0.926890      0.129654     Biso  1.000000 H
   H57        1.0     0.762364      0.490185      0.002727     Biso  1.000000 H
   H58        1.0     0.237618      0.509799      0.997278     Biso  1.000000 H
   H59        1.0     0.737563      0.509799      0.502667     Biso  1.000000 H
   H60        1.0     0.262430      0.490192      0.497333     Biso  1.000000 H
   H61        1.0     0.237624      0.990191      0.497255     Biso  1.000000 H
   H62        1.0     0.762375      0.009806      0.502744     Biso  1.000000 H
   H63        1.0     0.262436      0.009791      0.997307     Biso  1.000000 H
   H64        1.0     0.737566      0.990198      0.002655     Biso  1.000000 H
   H65        1.0     0.607882      0.709315      0.097991     Biso  1.000000 H
   H66        1.0     0.392126      0.290695      0.902003     Biso  1.000000 H
   H67        1.0     0.892089      0.290792      0.598041     Biso  1.000000 H
   H68        1.0     0.107907      0.709206      0.401962     Biso  1.000000 H
   H69        1.0     0.392136      0.209294      0.402003     Biso  1.000000 H
   H70        1.0     0.607878      0.790687      0.597989     Biso  1.000000 H
   H71        1.0     0.107892      0.790770      0.901983     Biso  1.000000 H
   H72        1.0     0.892089      0.209205      0.098043     Biso  1.000000 H
   H73        1.0     0.493943      0.545781      0.442773     Biso  1.000000 H
   H74        1.0     0.506061      0.454266      0.557206     Biso  1.000000 H
   H75        1.0     1.006016      0.454185      0.942742     Biso  1.000000 H
   H76        1.0    -0.006035      0.545807      0.057262     Biso  1.000000 H
   H77        1.0     0.506056      0.045687      0.057213     Biso  1.000000 H
   H78        1.0     0.493944      0.954226      0.942769     Biso  1.000000 H
   H79        1.0    -0.006023      0.954206      0.557259     Biso  1.000000 H
   H80        1.0     1.006011      0.045814      0.442739     Biso  1.000000 H
   H81        1.0     0.602874      0.651901      0.546778     Biso  1.000000 H
   H82        1.0     0.397175      0.348071      0.453232     Biso  1.000000 H
   H83        1.0     0.897050      0.348049      0.046744     Biso  1.000000 H
   H84        1.0     0.102942      0.651911      0.953244     Biso  1.000000 H
   H85        1.0     0.397189      0.151910      0.953247     Biso  1.000000 H
   H86        1.0     0.602876      0.848105      0.046772     Biso  1.000000 H
   H87        1.0     0.102955      0.848094      0.453242     Biso  1.000000 H
   H88        1.0     0.897041      0.151953      0.546743     Biso  1.000000 H
   H89        1.0     0.680208      0.682231      0.284285     Biso  1.000000 H
   H90        1.0     0.319804      0.317831      0.715719     Biso  1.000000 H
   H91        1.0     0.819818      0.317700      0.784258     Biso  1.000000 H
   H92        1.0     0.180194      0.682270      0.215726     Biso  1.000000 H
   H93        1.0     0.319811      0.182144      0.215735     Biso  1.000000 H
   H94        1.0     0.680202      0.817756      0.784277     Biso  1.000000 H
   H95        1.0     0.180178      0.817714      0.715728     Biso  1.000000 H
   H96        1.0     0.819817      0.182299      0.284255     Biso  1.000000 H
