data_ZIF
_cell_length_a                         14.55883
_cell_length_b                         14.44746
_cell_length_c                         15.45788
_cell_angle_alpha                      90
_cell_angle_beta                       90
_cell_angle_gamma                      90
_space_group_name_H-M_alt              'P 1'
_space_group_IT_number                 1

loop_
_space_group_symop_operation_xyz
   'x, y, z'

loop_
   _atom_site_label
   _atom_site_occupancy
   _atom_site_fract_x
   _atom_site_fract_y
   _atom_site_fract_z
   _atom_site_adp_type
   _atom_site_B_iso_or_equiv
   _atom_site_type_symbol
   Zn1        1.0     0.263177      0.306132      0.065482     Biso  1.000000 Zn
   Zn2        1.0     0.736929      0.693864      0.934458     Biso  1.000000 Zn
   Zn3        1.0     0.237045      0.694001      0.565545     Biso  1.000000 Zn
   Zn4        1.0     0.762921      0.306035      0.434466     Biso  1.000000 Zn
   Zn5        1.0     0.737070      0.806018      0.434453     Biso  1.000000 Zn
   Zn6        1.0     0.262961      0.193893      0.565553     Biso  1.000000 Zn
   Zn7        1.0     0.762874      0.194033      0.934518     Biso  1.000000 Zn
   Zn8        1.0     0.236935      0.806083      0.065631     Biso  1.000000 Zn
   Zn9        1.0     0.981485      0.073435      0.231483     Biso  1.000000 Zn
   Zn10       1.0     0.018410      0.926960      0.768544     Biso  1.000000 Zn
   Zn11       1.0     0.518764      0.927273      0.731618     Biso  1.000000 Zn
   Zn12       1.0     0.481187      0.072501      0.268378     Biso  1.000000 Zn
   Zn13       1.0     0.018693      0.572877      0.268410     Biso  1.000000 Zn
   Zn14       1.0     0.981417      0.427066      0.731570     Biso  1.000000 Zn
   Zn15       1.0     0.481363      0.427417      0.768172     Biso  1.000000 Zn
   Zn16       1.0     0.518665      0.572553      0.231754     Biso  1.000000 Zn
   N1         1.0     0.141068      0.277662      0.114911     Biso  1.000000 N
   N2         1.0     0.858957      0.722555      0.884925     Biso  1.000000 N
   N3         1.0     0.358944      0.722996      0.615275     Biso  1.000000 N
   N4         1.0     0.641033      0.276859      0.384776     Biso  1.000000 N
   N5         1.0     0.859029      0.777203      0.384729     Biso  1.000000 N
   N6         1.0     0.140946      0.222617      0.615180     Biso  1.000000 N
   N7         1.0     0.641010      0.223098      0.884782     Biso  1.000000 N
   N8         1.0     0.358878      0.776927      0.115306     Biso  1.000000 N
   N9         1.0     0.046224      0.189869      0.193746     Biso  1.000000 N
   N10        1.0     0.953761      0.810397      0.806119     Biso  1.000000 N
   N11        1.0     0.453938      0.810968      0.693787     Biso  1.000000 N
   N12        1.0     0.545953      0.188696      0.306516     Biso  1.000000 N
   N13        1.0     0.954066      0.689437      0.306061     Biso  1.000000 N
   N14        1.0     0.046188      0.310532      0.693979     Biso  1.000000 N
   N15        1.0     0.546043      0.311184      0.806334     Biso  1.000000 N
   N16        1.0     0.453917      0.688790      0.193635     Biso  1.000000 N
   N17        1.0     0.323311      0.381162      0.160996     Biso  1.000000 N
   N18        1.0     0.676719      0.618811      0.838975     Biso  1.000000 N
   N19        1.0     0.176632      0.618794      0.660929     Biso  1.000000 N
   N20        1.0     0.823559      0.381154      0.339118     Biso  1.000000 N
   N21        1.0     0.676680      0.881173      0.339053     Biso  1.000000 N
   N22        1.0     0.323505      0.118782      0.660926     Biso  1.000000 N
   N23        1.0     0.823210      0.118881      0.839097     Biso  1.000000 N
   N24        1.0     0.176287      0.881375      0.160912     Biso  1.000000 N
   N25        1.0     0.423850      0.475650      0.225365     Biso  1.000000 N
   N26        1.0     0.576184      0.524309      0.774628     Biso  1.000000 N
   N27        1.0     0.076073      0.524213      0.725193     Biso  1.000000 N
   N28        1.0     0.924003      0.475811      0.274821     Biso  1.000000 N
   N29        1.0     0.575997      0.975604      0.274751     Biso  1.000000 N
   N30        1.0     0.424099      0.024306      0.725243     Biso  1.000000 N
   N31        1.0     0.923352      0.023748      0.775017     Biso  1.000000 N
   N32        1.0     0.076413      0.976678      0.225193     Biso  1.000000 N
   N33        1.0     0.334122      0.185777      0.070117     Biso  1.000000 N
   N34        1.0     0.665968      0.814218      0.929847     Biso  1.000000 N
   N35        1.0     0.166097      0.814363      0.570253     Biso  1.000000 N
   N36        1.0     0.833865      0.185679      0.429828     Biso  1.000000 N
   N37        1.0     0.665982      0.685747      0.429857     Biso  1.000000 N
   N38        1.0     0.333917      0.314263      0.570159     Biso  1.000000 N
   N39        1.0     0.833904      0.314351      0.929826     Biso  1.000000 N
   N40        1.0     0.166088      0.685642      0.070181     Biso  1.000000 N
   N41        1.0     0.422587      0.096363      0.154610     Biso  1.000000 N
   N42        1.0     0.577432      0.903555      0.845361     Biso  1.000000 N
   N43        1.0     0.077401      0.903451      0.654837     Biso  1.000000 N
   N44        1.0     0.922627      0.096791      0.345180     Biso  1.000000 N
   N45        1.0     0.577408      0.596353      0.345452     Biso  1.000000 N
   N46        1.0     0.422593      0.403643      0.654502     Biso  1.000000 N
   N47        1.0     0.922594      0.403530      0.845313     Biso  1.000000 N
   N48        1.0     0.077424      0.596418      0.154666     Biso  1.000000 N
   N49        1.0     0.292307      0.384780      0.964340     Biso  1.000000 N
   N50        1.0     0.707828      0.615180      0.035630     Biso  1.000000 N
   N51        1.0     0.208441      0.615454      0.464073     Biso  1.000000 N
   N52        1.0     0.791575      0.384568      0.535931     Biso  1.000000 N
   N53        1.0     0.708451      0.884560      0.535926     Biso  1.000000 N
   N54        1.0     0.291555      0.115383      0.464065     Biso  1.000000 N
   N55        1.0     0.791574      0.115406      0.035930     Biso  1.000000 N
   N56        1.0     0.208410      0.884589      0.964083     Biso  1.000000 N
   N57        1.0     0.384720      0.438265      0.859933     Biso  1.000000 N
   N58        1.0     0.615272      0.561720      0.139951     Biso  1.000000 N
   N59        1.0     0.115416      0.561878      0.360146     Biso  1.000000 N
   N60        1.0     0.884760      0.438117      0.639755     Biso  1.000000 N
   N61        1.0     0.615435      0.938123      0.639853     Biso  1.000000 N
   N62        1.0     0.384498      0.061756      0.360101     Biso  1.000000 N
   N63        1.0     0.884791      0.061923      0.139777     Biso  1.000000 N
   N64        1.0     0.115157      0.938131      0.860306     Biso  1.000000 N
   C1         1.0     0.114417      0.190957      0.135210     Biso  1.000000 C
   C2         1.0     0.885539      0.809281      0.864623     Biso  1.000000 C
   C3         1.0     0.385583      0.809751      0.635427     Biso  1.000000 C
   C4         1.0     0.614402      0.190030      0.364797     Biso  1.000000 C
   C5         1.0     0.885698      0.690501      0.364433     Biso  1.000000 C
   C6         1.0     0.114369      0.309363      0.635433     Biso  1.000000 C
   C7         1.0     0.614350      0.309892      0.864747     Biso  1.000000 C
   C8         1.0     0.385554      0.690118      0.135278     Biso  1.000000 C
   C9         1.0     0.085794      0.335683      0.163498     Biso  1.000000 C
   C10        1.0     0.914312      0.664559      0.836412     Biso  1.000000 C
   C11        1.0     0.414319      0.665077      0.663852     Biso  1.000000 C
   C12        1.0     0.585528      0.334644      0.336198     Biso  1.000000 C
   C13        1.0     0.914368      0.835240      0.336243     Biso  1.000000 C
   C14        1.0     0.085643      0.164679      0.663810     Biso  1.000000 C
   C15        1.0     0.585708      0.165253      0.836057     Biso  1.000000 C
   C16        1.0     0.414274      0.834732      0.163984     Biso  1.000000 C
   C17        1.0     0.027365      0.281387      0.211977     Biso  1.000000 C
   C18        1.0     0.972705      0.718881      0.787935     Biso  1.000000 C
   C19        1.0     0.472810      0.719458      0.712169     Biso  1.000000 C
   C20        1.0     0.526995      0.280139      0.288049     Biso  1.000000 C
   C21        1.0     0.972890      0.780972      0.287839     Biso  1.000000 C
   C22        1.0     0.027275      0.219041      0.712291     Biso  1.000000 C
   C23        1.0     0.527260      0.219699      0.787758     Biso  1.000000 C
   C24        1.0     0.472778      0.780251      0.212195     Biso  1.000000 C
   C25        1.0     0.399495      0.432654      0.151380     Biso  1.000000 C
   C26        1.0     0.600552      0.567300      0.848607     Biso  1.000000 C
   C27        1.0     0.100499      0.567246      0.651235     Biso  1.000000 C
   C28        1.0     0.899677      0.432713      0.348781     Biso  1.000000 C
   C29        1.0     0.600493      0.932655      0.348735     Biso  1.000000 C
   C30        1.0     0.399661      0.067279      0.651257     Biso  1.000000 C
   C31        1.0     0.899166      0.067064      0.848882     Biso  1.000000 C
   C32        1.0     0.100421      0.933338      0.151275     Biso  1.000000 C
   C33        1.0     0.297283      0.391601      0.246181     Biso  1.000000 C
   C34        1.0     0.702747      0.608369      0.753786     Biso  1.000000 C
   C35        1.0     0.202590      0.608329      0.746137     Biso  1.000000 C
   C36        1.0     0.797446      0.391745      0.253955     Biso  1.000000 C
   C37        1.0     0.702582      0.891585      0.253828     Biso  1.000000 C
   C38        1.0     0.297510      0.108322      0.746130     Biso  1.000000 C
   C39        1.0     0.797214      0.108328      0.753909     Biso  1.000000 C
   C40        1.0     0.202476      0.891866      0.246063     Biso  1.000000 C
   C41        1.0     0.358848      0.450243      0.285854     Biso  1.000000 C
   C42        1.0     0.641160      0.549696      0.714121     Biso  1.000000 C
   C43        1.0     0.141012      0.549608      0.785737     Biso  1.000000 C
   C44        1.0     0.858993      0.450474      0.214329     Biso  1.000000 C
   C45        1.0     0.640929      0.950200      0.214207     Biso  1.000000 C
   C46        1.0     0.359137      0.049684      0.785763     Biso  1.000000 C
   C47        1.0     0.858550      0.049289      0.714414     Biso  1.000000 C
   C48        1.0     0.141314      0.951019      0.285669     Biso  1.000000 C
   C49        1.0     0.347940      0.151037      0.149987     Biso  1.000000 C
   C50        1.0     0.652136      0.848965      0.849982     Biso  1.000000 C
   C51        1.0     0.152074      0.848817      0.650208     Biso  1.000000 C
   C52        1.0     0.847892      0.151309      0.349860     Biso  1.000000 C
   C53        1.0     0.652146      0.650909      0.350035     Biso  1.000000 C
   C54        1.0     0.347854      0.349086      0.649985     Biso  1.000000 C
   C55        1.0     0.847893      0.348934      0.849926     Biso  1.000000 C
   C56        1.0     0.152095      0.651042      0.150074     Biso  1.000000 C
   C57        1.0     0.404810      0.150417      0.020173     Biso  1.000000 C
   C58        1.0     0.595249      0.849497      0.979794     Biso  1.000000 C
   C59        1.0     0.095489      0.849890      0.520281     Biso  1.000000 C
   C60        1.0     0.904541      0.150217      0.479758     Biso  1.000000 C
   C61        1.0     0.595198      0.650612      0.479817     Biso  1.000000 C
   C62        1.0     0.404631      0.349446      0.520135     Biso  1.000000 C
   C63        1.0     0.904575      0.349735      0.979805     Biso  1.000000 C
   C64        1.0     0.095449      0.650208      0.020180     Biso  1.000000 C
   C65        1.0     0.459179      0.095631      0.072055     Biso  1.000000 C
   C66        1.0     0.540846      0.904247      0.927921     Biso  1.000000 C
   C67        1.0     0.040973      0.904447      0.572225     Biso  1.000000 C
   C68        1.0     0.959087      0.095742      0.427760     Biso  1.000000 C
   C69        1.0     0.540748      0.595854      0.427991     Biso  1.000000 C
   C70        1.0     0.459119      0.404211      0.571911     Biso  1.000000 C
   C71        1.0     0.959071      0.404375      0.927913     Biso  1.000000 C
   C72        1.0     0.040962      0.595541      0.072061     Biso  1.000000 C
   C73        1.0     0.351211      0.363005      0.900322     Biso  1.000000 C
   C74        1.0     0.648842      0.636974      0.099583     Biso  1.000000 C
   C75        1.0     0.149200      0.637168      0.400299     Biso  1.000000 C
   C76        1.0     0.850880      0.362832      0.599645     Biso  1.000000 C
   C77        1.0     0.649292      0.862833      0.599764     Biso  1.000000 C
   C78        1.0     0.350664      0.137065      0.400180     Biso  1.000000 C
   C79        1.0     0.850912      0.137166      0.099606     Biso  1.000000 C
   C80        1.0     0.148979      0.862864      0.900474     Biso  1.000000 C
   C81        1.0     0.288055      0.480580      0.964978     Biso  1.000000 C
   C82        1.0     0.712025      0.519386      0.034978     Biso  1.000000 C
   C83        1.0     0.212552      0.519651      0.464852     Biso  1.000000 C
   C84        1.0     0.787508      0.480376      0.535147     Biso  1.000000 C
   C85        1.0     0.712452      0.980367      0.535059     Biso  1.000000 C
   C86        1.0     0.287549      0.019572      0.464972     Biso  1.000000 C
   C87        1.0     0.787485      0.019594      0.035224     Biso  1.000000 C
   C88        1.0     0.212597      0.980394      0.964755     Biso  1.000000 C
   C89        1.0     0.345002      0.513205      0.900732     Biso  1.000000 C
   C90        1.0     0.655005      0.486770      0.099168     Biso  1.000000 C
   C91        1.0     0.155219      0.486963      0.400938     Biso  1.000000 C
   C92        1.0     0.844898      0.513042      0.599023     Biso  1.000000 C
   C93        1.0     0.655146      0.013058      0.598989     Biso  1.000000 C
   C94        1.0     0.344808      0.986856      0.401019     Biso  1.000000 C
   C95        1.0     0.844908      0.986971      0.099101     Biso  1.000000 C
   C96        1.0     0.155163      0.013060      0.900914     Biso  1.000000 C
   H1         1.0     0.407464      0.909468      0.161152     Biso  1.000000 H
   H2         1.0     0.592574      0.090514      0.838902     Biso  1.000000 H
   H3         1.0     0.092443      0.089944      0.660783     Biso  1.000000 H
   H4         1.0     0.907464      0.909963      0.339268     Biso  1.000000 H
   H5         1.0     0.592296      0.409388      0.339059     Biso  1.000000 H
   H6         1.0     0.407495      0.590333      0.660883     Biso  1.000000 H
   H7         1.0     0.907543      0.589819      0.839497     Biso  1.000000 H
   H8         1.0     0.092664      0.410413      0.160448     Biso  1.000000 H
   H9         1.0     0.525517      0.799604      0.258287     Biso  1.000000 H
   H10        1.0     0.474612      0.200280      0.741591     Biso  1.000000 H
   H11        1.0     0.974587      0.199605      0.758409     Biso  1.000000 H
   H12        1.0     0.025684      0.800478      0.241857     Biso  1.000000 H
   H13        1.0     0.474164      0.299454      0.242034     Biso  1.000000 H
   H14        1.0     0.525582      0.700000      0.758196     Biso  1.000000 H
   H15        1.0     0.025461      0.699408      0.741902     Biso  1.000000 H
   H16        1.0     0.974631      0.300884      0.258014     Biso  1.000000 H
   H17        1.0     0.354792      0.628331      0.107710     Biso  1.000000 H
   H18        1.0     0.645103      0.371690      0.892294     Biso  1.000000 H
   H19        1.0     0.145081      0.371203      0.607912     Biso  1.000000 H
   H20        1.0     0.854931      0.628619      0.391817     Biso  1.000000 H
   H21        1.0     0.645288      0.128260      0.392280     Biso  1.000000 H
   H22        1.0     0.354793      0.871586      0.607988     Biso  1.000000 H
   H23        1.0     0.854796      0.871109      0.892107     Biso  1.000000 H
   H24        1.0     0.145095      0.129074      0.107749     Biso  1.000000 H
   H25        1.0     0.436783      0.439651      0.090849     Biso  1.000000 H
   H26        1.0     0.563280      0.560294      0.909145     Biso  1.000000 H
   H27        1.0     0.063296      0.560246      0.590664     Biso  1.000000 H
   H28        1.0     0.936926      0.439627      0.409333     Biso  1.000000 H
   H29        1.0     0.563298      0.939661      0.409312     Biso  1.000000 H
   H30        1.0     0.436808      0.060276      0.590656     Biso  1.000000 H
   H31        1.0     0.936388      0.060064      0.909439     Biso  1.000000 H
   H32        1.0     0.063098      0.940310      0.090765     Biso  1.000000 H
   H33        1.0     0.236589      0.357618      0.271490     Biso  1.000000 H
   H34        1.0     0.763426      0.642350      0.728469     Biso  1.000000 H
   H35        1.0     0.263210      0.642361      0.771545     Biso  1.000000 H
   H36        1.0     0.736761      0.357797      0.228583     Biso  1.000000 H
   H37        1.0     0.763230      0.857584      0.228438     Biso  1.000000 H
   H38        1.0     0.236835      0.142278      0.771522     Biso  1.000000 H
   H39        1.0     0.736702      0.142520      0.728456     Biso  1.000000 H
   H40        1.0     0.262969      0.857559      0.271426     Biso  1.000000 H
   H41        1.0     0.359861      0.476183      0.351652     Biso  1.000000 H
   H42        1.0     0.640154      0.523773      0.648320     Biso  1.000000 H
   H43        1.0     0.139990      0.523667      0.851537     Biso  1.000000 H
   H44        1.0     0.859982      0.476456      0.148542     Biso  1.000000 H
   H45        1.0     0.639873      0.976097      0.148394     Biso  1.000000 H
   H46        1.0     0.360175      0.023746      0.851560     Biso  1.000000 H
   H47        1.0     0.859499      0.023201      0.648664     Biso  1.000000 H
   H48        1.0     0.140594      0.977110      0.351416     Biso  1.000000 H
   H49        1.0     0.639997      0.416268      0.118753     Biso  1.000000 H
   H50        1.0     0.359976      0.583706      0.881116     Biso  1.000000 H
   H51        1.0     0.860043      0.583566      0.618446     Biso  1.000000 H
   H52        1.0     0.140113      0.416413      0.381550     Biso  1.000000 H
   H53        1.0     0.359995      0.916306      0.381687     Biso  1.000000 H
   H54        1.0     0.639942      0.083592      0.618334     Biso  1.000000 H
   H55        1.0     0.140066      0.083593      0.881460     Biso  1.000000 H
   H56        1.0     0.860082      0.916449      0.118526     Biso  1.000000 H
   H57        1.0     0.754721      0.481848      0.989339     Biso  1.000000 H
   H58        1.0     0.245384      0.518118      0.010640     Biso  1.000000 H
   H59        1.0     0.744657      0.517895      0.489615     Biso  1.000000 H
   H60        1.0     0.255408      0.482147      0.510392     Biso  1.000000 H
   H61        1.0     0.244797      0.982089      0.510611     Biso  1.000000 H
   H62        1.0     0.755260      0.017862      0.489481     Biso  1.000000 H
   H63        1.0     0.255549      0.017917      0.010205     Biso  1.000000 H
   H64        1.0     0.744575      0.982041      0.989760     Biso  1.000000 H
   H65        1.0     0.628928      0.707151      0.116165     Biso  1.000000 H
   H66        1.0     0.371095      0.292819      0.883730     Biso  1.000000 H
   H67        1.0     0.870856      0.292650      0.616161     Biso  1.000000 H
   H68        1.0     0.129202      0.707338      0.383780     Biso  1.000000 H
   H69        1.0     0.370548      0.207237      0.383540     Biso  1.000000 H
   H70        1.0     0.629462      0.792652      0.616429     Biso  1.000000 H
   H71        1.0     0.128821      0.792716      0.884051     Biso  1.000000 H
   H72        1.0     0.870935      0.207351      0.116050     Biso  1.000000 H
   H73        1.0     0.478980      0.557454      0.443860     Biso  1.000000 H
   H74        1.0     0.520809      0.442709      0.555958     Biso  1.000000 H
   H75        1.0     0.020734      0.442954      0.943790     Biso  1.000000 H
   H76        1.0     0.979348      0.556893      0.056166     Biso  1.000000 H
   H77        1.0     0.520833      0.057035      0.056183     Biso  1.000000 H
   H78        1.0     0.479156      0.942766      0.943797     Biso  1.000000 H
   H79        1.0     0.979347      0.943121      0.556422     Biso  1.000000 H
   H80        1.0     0.020729      0.057092      0.443540     Biso  1.000000 H
   H81        1.0     0.587871      0.666098      0.548130     Biso  1.000000 H
   H82        1.0     0.411891      0.333990      0.451803     Biso  1.000000 H
   H83        1.0     0.911803      0.334509      0.048188     Biso  1.000000 H
   H84        1.0     0.088239      0.665420      0.951795     Biso  1.000000 H
   H85        1.0     0.412094      0.165728      0.951815     Biso  1.000000 H
   H86        1.0     0.587945      0.834122      0.048134     Biso  1.000000 H
   H87        1.0     0.088280      0.834782      0.451879     Biso  1.000000 H
   H88        1.0     0.911740      0.165276      0.548171     Biso  1.000000 H
   H89        1.0     0.695686      0.666184      0.294751     Biso  1.000000 H
   H90        1.0     0.304427      0.333715      0.705309     Biso  1.000000 H
   H91        1.0     0.804506      0.333360      0.794631     Biso  1.000000 H
   H92        1.0     0.195465      0.666626      0.205378     Biso  1.000000 H
   H93        1.0     0.304444      0.166490      0.205241     Biso  1.000000 H
   H94        1.0     0.695625      0.833533      0.794721     Biso  1.000000 H
   H95        1.0     0.195394      0.833102      0.705522     Biso  1.000000 H
   H96        1.0     0.804529      0.166985      0.294570     Biso  1.000000 H
