data_Zn_TACN_ICMUB
_audit_creation_method         'generated by CrystalMaker 8.5.1'
_publ_section_comment
;
Chemical formula (sum): C20 H30 N2 O4.67 Zn1.33
Chemical formula weight: 460.29

;
_cell_length_a                  25.8200(0)
_cell_length_b                  25.8200(0)
_cell_length_c                  25.8200(0)
_cell_angle_alpha               90.0000(0)
_cell_angle_beta                90.0000(0)
_cell_angle_gamma               90.0000(0)


loop_
_symmetry_equiv_pos_as_xyz
'+x,+y,+z'
'-x,1/2-y,+z'
'+x,-y,1/2-z'
'1/2-x,+y,-z'
'+z,+x,+y'
'+y,+z,+x'
'-z,1/2-x,+y'
'1/2-y,+z,-x'
'+z,-x,1/2-y'
'-y,1/2-z,+x'
'1/2-z,+x,-y'
'+y,-z,1/2-x'
'1/4+y,1/4+x,1/4+z'
'3/4-y,1/4-x,1/4+z'
'1/4-y,1/4+x,3/4-z'
'1/4+y,3/4-x,1/4-z'
'1/4+x,1/4+z,1/4+y'
'1/4+z,1/4+y,1/4+x'
'3/4-x,1/4-z,1/4+y'
'1/4+z,3/4-y,1/4-x'
'1/4-x,1/4+z,3/4-y'
'3/4-z,1/4-y,1/4+x'
'1/4+x,3/4-z,1/4-y'
'1/4-z,1/4+y,3/4-x'
'1/2+x,1/2+y,1/2+z'
'1/2-x,-y,1/2+z'
'1/2+x,1/2-y,-z'
'-x,1/2+y,1/2-z'
'1/2+z,1/2+x,1/2+y'
'1/2+y,1/2+z,1/2+x'
'1/2-z,-x,1/2+y'
'-y,1/2+z,1/2-x'
'1/2+z,1/2-x,-y'
'1/2-y,-z,1/2+x'
'-z,1/2+x,1/2-y'
'1/2+y,1/2-z,-x'
'3/4+y,3/4+x,3/4+z'
'1/4-y,3/4-x,3/4+z'
'3/4-y,3/4+x,1/4-z'
'3/4+y,1/4-x,3/4-z'
'3/4+x,3/4+z,3/4+y'
'3/4+z,3/4+y,3/4+x'
'1/4-x,3/4-z,3/4+y'
'3/4+z,1/4-y,3/4-x'
'3/4-x,3/4+z,1/4-y'
'1/4-z,3/4-y,3/4+x'
'3/4+x,1/4-z,3/4-y'
'3/4-z,3/4+y,1/4-x'

loop_
_atom_site_label
_atom_site_type_symbol
_atom_site_occupancy
_atom_site_fract_x
_atom_site_fract_y
_atom_site_fract_z
_atom_site_U_iso_or_equiv
    C1    C  1.0000      0.3479    0.7846    0.3018  .  
    C2    C  1.0000      0.3641    0.8118    0.3510  .  
    C3    C  1.0000      0.3705    0.7883    0.3961  .  
    C4    C  1.0000      0.3826    0.8113    0.4411  .  
    C5    C  1.0000      0.3914    0.8647    0.4427  .  
    C6    C  1.0000      0.3851    0.8916    0.3961  .  
    C7    C  1.0000      0.3703    0.8667    0.3520  .  
    C8    C  1.0000      0.4065    0.8949    0.4907  .  
    C9    C  1.0000      0.2663    0.7516    0.3389  .  
   C10    C  1.0000      0.2679    0.8300    0.2856  .  
    H3    H  1.0000      0.3661    0.7525    0.3966  .
    H4    H  1.0000      0.3851    0.7918    0.4712  .
    H6    H  1.0000      0.3910    0.9271    0.3952  .
    H7    H  1.0000      0.3640    0.8858    0.3221  .
  H10A    H  1.0000      0.2944    0.8557    0.2925  .
  H10B    H  1.0000      0.2398    0.8364    0.3097  .
   H1A    H  1.0000      0.3630    0.7502    0.3011  .
   H1B    H  1.0000      0.3611    0.8036    0.2722  .
   H9A    H  1.0000      0.2656    0.7738    0.3692  .
   H9B    H  1.0000      0.2887    0.7225    0.3468  .
    N1    N  1.0000      0.2892    0.7801    0.2973  .  
    O1    O  1.0000      0.4003    0.8676    0.5302  .  
    O2    O  1.0000      0.4198    0.9384    0.4887  .  
   Zn1    Zn 1.0000      0.2692    0.7308    0.2308  .  
   Zn2    Zn 1.0000      0.4024    0.9024    0.5976  .  

