data_foo_10
_symmetry_space_group_name_H-M 'C 2'
_space_group_IT_number         5
_cell_length_a                 21.05712760
_cell_length_b                 21.05147150
_cell_length_c                 21.06265812
_cell_angle_alpha              90.000000
_cell_angle_beta               90.003869
_cell_angle_gamma              90.000000
loop_
_atom_site_type_symbol
_atom_site_fract_x
_atom_site_fract_y
_atom_site_fract_z
C -2.260897632346E-01 1.816316582366E-01 -2.845616400457E-03
C 2.601678447918E-01 1.914282075367E-01 4.871321598870E-01
C 1.899881996583E-01 -5.458844955850E-03 -2.294001835113E-01
C -3.177906472489E-01 -6.864159963070E-03 2.638241445553E-01
C -8.914558357163E-03 -2.408090936237E-01 1.877858286825E-01
C -4.184061680587E-03 2.744024493108E-01 -3.144259920766E-01
C 2.363483121711E-01 -7.931977896590E-03 -1.827973628681E-01
C -2.713944464800E-01 -4.352761311532E-03 3.103894802967E-01
C -1.917690351740E-01 -2.386741131776E-01 5.116808710241E-03
C -1.801267845061E-01 2.741602815298E-01 -4.933328813784E-01
C 8.325601403339E-03 1.911661279289E-01 2.355461631291E-01
C 3.616432278508E-03 -3.198674640521E-01 -2.711134677553E-01
C 2.374018377662E-01 -1.911636172544E-01 -5.454102085386E-03
C -2.724053992947E-01 -1.803935017454E-01 4.936688670512E-01
C -1.892289159353E-01 5.784143642430E-03 -2.270413007842E-01
C 3.169704118976E-01 6.238879625786E-03 2.617844773900E-01
C 8.047015147850E-03 2.361964134263E-01 1.876022326897E-01
C 3.739225764296E-03 -2.718519316817E-01 -3.161233809137E-01
C -2.357359651221E-01 4.665053389012E-03 -1.805282356015E-01
C 2.704308478590E-01 7.372365009981E-03 3.082339544457E-01
C 1.803197482328E-01 2.292234650328E-01 3.216896030966E-03
C 1.924953984061E-01 -2.632064725405E-01 -4.875685578450E-01
C -9.052609088222E-03 -1.929275371452E-01 2.327069982800E-01
C -3.942156288692E-03 3.195400091508E-01 -2.664124344199E-01
C 1.490511459794E-01 3.445609493232E-01 3.209058960057E-03
C 1.581462658786E-01 -1.508565781818E-01 -4.944533910437E-01
C 3.497153517664E-01 1.486538875727E-03 1.481544643243E-01
C -1.565550701827E-01 6.279705989510E-03 -3.410609648641E-01
C 4.431605792286E-03 1.600492970026E-01 3.493926192392E-01
C 3.713866300263E-03 -3.540621108586E-01 -1.570175920291E-01
C -3.413554009893E-01 1.475042450505E-01 -1.979291214857E-03
C 1.475481976810E-01 1.601724472967E-01 4.931625939039E-01
C -3.413898462169E-03 3.490679500289E-01 -1.513480797212E-01
C -4.385013134704E-03 -1.568961471055E-01 3.451186511072E-01
C -3.502170151558E-01 -8.292846274466E-03 1.498983231324E-01
C 1.575749625853E-01 8.289430231622E-04 -3.432292536819E-01
C -1.982432188439E-01 2.931283370280E-01 -4.300498410732E-03
C -2.089997645377E-01 -1.993112831531E-01 4.913469571595E-01
C -2.074341545614E-01 -3.294826544989E-03 2.932409002887E-01
C 3.002991503650E-01 -8.310409540289E-03 -1.999777913786E-01
C -5.535521894140E-03 3.005580061713E-01 -2.029082315459E-01
C -6.103953979260E-03 -2.084654196592E-01 2.968993863763E-01
C -2.904654917162E-01 1.973891926470E-01 -3.587146232293E-03
C 1.967776688193E-01 2.102298587511E-01 4.905791668420E-01
C 2.064984538960E-01 6.826078231908E-03 2.909538353743E-01
C -2.996384963516E-01 4.578987702817E-03 -1.979031592329E-01
C 5.849757538525E-03 -3.042028697597E-01 -2.068942427661E-01
C 6.051230295985E-03 2.100059377619E-01 2.990664156349E-01
Ce -1.247425992148E-01 3.770471941936E-03 -4.991295972712E-01
Ce 0.000000000000E+00 -1.219249828919E-01 5.000000000000E-01
Ce -2.231938435117E-17 -3.778880179820E-01 2.329968003976E-23
Ce -3.819054635418E-04 2.527559649826E-03 3.742133527837E-01
H -2.192045958721E-03 3.700312452282E-01 -2.770935516947E-01
H -1.108738600553E-02 -1.431210331705E-01 2.192563334827E-01
H 2.824891785639E-01 8.373512028234E-03 3.584056383721E-01
H -2.236512487627E-01 3.553367363752E-03 -1.303638092418E-01
H 1.425143939726E-01 -2.759048435861E-01 -4.855242233910E-01
H 1.299952554406E-01 2.176712721570E-01 2.426793352208E-03
H -1.390434355952E-01 5.563086933406E-03 -2.149417712706E-01
H -1.083017144280E-02 -2.303402396451E-01 1.373250040401E-01
H 2.708899702216E-01 1.410235379867E-01 4.847054061084E-01
H -2.126379179197E-01 1.317562758285E-01 -1.761294043230E-03
H -3.680088232762E-01 -7.344806267567E-03 2.757704583098E-01
H 1.397837898584E-01 -4.809503374084E-03 -2.174118909702E-01
H 3.671611725429E-01 6.329954127585E-03 2.738564779473E-01
H 1.397925301158E-03 -3.696659473652E-01 -2.846537476641E-01
H 2.240486694652E-01 -1.412779271273E-01 -6.417856137165E-03
H 1.000748755984E-02 1.406952236453E-01 2.248835534673E-01
H -2.831115079568E-01 -1.299667204156E-01 4.963081792527E-01
H -2.836134173476E-01 -2.867959631225E-03 3.605119454335E-01
H 2.241286664988E-01 -9.186061459397E-03 -1.326705349051E-01
H 9.489283329916E-03 2.225184223311E-01 1.378494947024E-01
H -1.301498109856E-01 2.869023162753E-01 -4.957409265364E-01
H 1.621087736853E-03 -2.822849413645E-01 -3.666174561600E-01
H -1.414604564610E-01 -2.271662861010E-01 5.818981836037E-03
H -2.610259037060E-03 2.881097376592E-01 -3.641845434971E-01
H 9.286137137081E-02 1.018577985111E-01 -4.071180468435E-01
H -4.046871580981E-01 8.774974598355E-02 9.524560499928E-02
H 9.614602491812E-02 -9.297971336203E-02 4.033349632160E-01
H 9.268775382176E-02 4.047446214190E-01 -9.202966595274E-02
O 4.849323560290E-02 4.484387227663E-01 4.854279226987E-02
O 5.100319825230E-02 -4.766921160081E-02 -4.489582266732E-01
O 4.498035901734E-01 4.655105521310E-02 4.915315167394E-02
O -4.896714953776E-02 5.345014850870E-02 -4.497664000880E-01
O 6.747538906989E-02 7.359013854823E-02 -4.326274075463E-01
O -4.317962785714E-01 6.287160545632E-02 6.806130421829E-02
O -6.959448639738E-02 -6.658579560620E-02 -4.296908413728E-01
O -6.622033229974E-02 4.309362078987E-01 6.545546106352E-02
O 1.019976772425E-01 -3.326224434492E-01 -1.581815167013E-03
O 9.005687843466E-02 1.764481693265E-01 4.967238279510E-01
O -3.316730384602E-01 -7.893824472984E-03 9.279690770763E-02
O 1.752478538847E-01 3.780465235027E-03 -4.003314165534E-01
O -4.263316357694E-03 1.031855076716E-01 -3.299925942539E-01
O -1.243512075719E-03 -4.116785153391E-01 1.731849668671E-01
O -1.002977942688E-01 1.953480164278E-03 3.253209950769E-01
O 4.072758926089E-01 -6.972632380720E-03 -1.680573657638E-01
O 3.256780445110E-01 8.963078490248E-02 1.032128063067E-04
O -1.675910699815E-01 1.036951791936E-01 -4.930975465329E-01
O 3.303617309959E-03 -3.343994151872E-01 -1.003748177526E-01
O 2.091907110644E-03 1.766653080515E-01 4.068270189452E-01
O -9.149804550167E-02 3.272015688253E-01 -1.821742754516E-03
O -1.014056462374E-01 -1.696020600726E-01 4.954598834308E-01
O 3.314688746382E-01 -1.024266159494E-03 9.101299649590E-02
O -1.744208117204E-01 6.386006823315E-03 -3.981989509066E-01
O 4.557799485348E-03 -1.001730923920E-01 -3.261312189491E-01
O 9.532551963177E-04 4.065634905675E-01 1.685531008931E-01
O 9.927384746468E-02 4.624749617288E-03 3.233033399456E-01
O -4.066893623753E-01 3.000082879780E-04 -1.666453850023E-01
O -3.321257070342E-01 -9.850322820518E-02 2.519051657089E-03
O 1.754971850540E-01 -9.350714898345E-02 -4.971870440617E-01
O -2.939358182933E-03 3.298506628478E-01 -9.459773202645E-02
O -1.723884205326E-03 -1.737357823108E-01 4.026600846012E-01
Zr 1.743371121738E-04 4.974820413874E-01 -1.179616758524E-01
Zr 1.116050611302E-17 1.223456716860E-01 5.000000000000E-01
Zr -3.811126663453E-01 -3.190723634485E-03 7.244933667274E-04
Zr 2.231938093494E-17 3.782855492124E-01 -2.298667886217E-23


