data_UiO66_Ce2Zr4_allopt_I-4m2
_audit_creation_method         'generated by CrystalMaker 9.2.3'
_publ_section_comment
;
(Imported from a Crystallographic Information File (CIF) file.)


;
_cell_length_a                  14.8273(0)
_cell_length_b                  14.8273(0)
_cell_length_c                  20.9174(0)
_cell_angle_alpha               90.0000(0)
_cell_angle_beta                90.0000(0)
_cell_angle_gamma               90.0000(0)

_symmetry_space_group_name_H-M     'I -4 m 2'
_symmetry_Int_Tables_number         119
_symmetry_cell_setting             tetragonal
loop_
_symmetry_equiv_pos_as_xyz
'+x,+y,+z'
'1/2+x,1/2+y,1/2+z'
'-x,-y,+z'
'1/2-x,1/2-y,1/2+z'
'+y,-x,-z'
'1/2+y,1/2-x,1/2-z'
'-y,+x,-z'
'1/2-y,1/2+x,1/2-z'
'+x,-y,+z'
'1/2+x,1/2-y,1/2+z'
'-x,+y,+z'
'1/2-x,1/2+y,1/2+z'
'+y,+x,-z'
'1/2+y,1/2+x,1/2-z'
'-y,-x,-z'
'1/2-y,1/2-x,1/2-z'

loop_
_atom_site_label
_atom_site_type_symbol
_atom_site_occupancy
_atom_site_fract_x
_atom_site_fract_y
_atom_site_fract_z
     C     C 1.0000      0.8464    0.1597    0.1501
     C     C 1.0000      0.2894    0.7009    0.2989
     C     C 1.0000      0.5000    0.0945    0.5076
     C     C 1.0000      0.2755    0.7347    0.8138
     C     C 1.0000      0.4188    0.0469    0.5079
     C     C 1.0000      0.3094    0.3198    0.2353
     C     C 1.0000      0.1959    0.5000    0.4944
    Ce    Ce 1.0000      0.0000    0.0000    0.8759
     H     H 1.0000      0.0846    0.6441    0.4922
     H     H 1.0000      0.8603    0.8707    0.7257
     H     H 1.0000      0.0000    0.8076    0.9098
     H     H 1.0000      0.2798    0.2898    0.1363
     O     O 1.0000      0.4029    0.6023    0.6693
     O     O 1.0000      0.7650    0.4242    0.4959
     O     O 1.0000      0.6727    0.6747    0.5922
     O     O 1.0000      0.3996    0.5000    0.4514
     O     O 1.0000      0.3625    0.5000    0.5655
    Zr    Zr 1.0000      0.3801    0.3801    0.5000

