data_ZN2CD6MOF5_opt_R-3m
_audit_creation_method         'generated by CrystalMaker 9.2.3'
_publ_section_comment
;
(Imported from a Crystallographic Information File (CIF) file.)


;
_cell_length_a                  17.8892(0)
_cell_length_b                  17.8892(0)
_cell_length_c                  52.1012(0)
_cell_angle_alpha               90.0000(0)
_cell_angle_beta                90.0000(0)
_cell_angle_gamma              120.0000(0)

_symmetry_space_group_name_H-M     'R -3 m'
_symmetry_Int_Tables_number         166
_symmetry_cell_setting             trigonal
loop_
_symmetry_equiv_pos_as_xyz
'+x,+y,+z'
'2/3+x,1/3+y,1/3+z'
'1/3+x,2/3+y,2/3+z'
'-y,+x-y,+z'
'2/3-y,1/3+x-y,1/3+z'
'1/3-y,2/3+x-y,2/3+z'
'-x+y,-x,+z'
'2/3-x+y,1/3-x,1/3+z'
'1/3-x+y,2/3-x,2/3+z'
'+y,+x,-z'
'2/3+y,1/3+x,1/3-z'
'1/3+y,2/3+x,2/3-z'
'+x-y,-y,-z'
'2/3+x-y,1/3-y,1/3-z'
'1/3+x-y,2/3-y,2/3-z'
'-x,-x+y,-z'
'2/3-x,1/3-x+y,1/3-z'
'1/3-x,2/3-x+y,2/3-z'
'-x,-y,-z'
'2/3-x,1/3-y,1/3-z'
'1/3-x,2/3-y,2/3-z'
'+y,-x+y,-z'
'2/3+y,1/3-x+y,1/3-z'
'1/3+y,2/3-x+y,2/3-z'
'+x-y,+x,-z'
'2/3+x-y,1/3+x,1/3-z'
'1/3+x-y,2/3+x,2/3-z'
'-y,-x,+z'
'2/3-y,1/3-x,1/3+z'
'1/3-y,2/3-x,2/3+z'
'-x+y,+y,+z'
'2/3-x+y,1/3+y,1/3+z'
'1/3-x+y,2/3+y,2/3+z'
'+x,+x-y,+z'
'2/3+x,1/3+x-y,1/3+z'
'1/3+x,2/3+x-y,2/3+z'

loop_
_atom_site_label
_atom_site_type_symbol
_atom_site_occupancy
_atom_site_fract_x
_atom_site_fract_y
_atom_site_fract_z
     C     C 1.0000      0.5695    0.4305    0.0374
     C     C 1.0000      0.7666    0.2334    0.1276
     C     C 1.0000      0.5429    0.4571    0.9917
     C     C 1.0000      0.4905    0.5095    0.0262
     C     C 1.0000      0.8852    0.2503    0.1572
     C     C 1.0000      0.5336    0.4664    0.0180
     C     C 1.0000      0.8014    0.1986    0.1477
    Cd    Cd 1.0000      0.2008    0.6004    0.9050
     H     H 1.0000      0.0574    0.4089    0.4830
     H     H 1.0000      0.6993    0.8496    0.3800
     H     H 1.0000      0.0903    0.9097    0.3478
     O     O 1.0000      0.4934    0.3100    0.1199
     O     O 1.0000      0.5587    0.4413    0.0609
     O     O 1.0000      0.6078    0.3922    0.0287
     O     O 1.0000      0.3333    0.6667    0.9196
    Zn    Zn 1.0000      0.0000    0.0000    0.2901

