data_MFM-131_ordered
_cell_length_a                  18.7355
_cell_length_b                  18.7355
_cell_length_c                  65.2986
_cell_angle_alpha               90.0000
_cell_angle_beta                90.0000
_cell_angle_gamma              120.0000

_symmetry_space_group_name_H-M     'R -3'
_symmetry_Int_Tables_number         148
_symmetry_cell_setting             trigonal

loop_
_symmetry_equiv_pos_as_xyz
'+x,+y,+z'
'2/3+x,1/3+y,1/3+z'
'1/3+x,2/3+y,2/3+z'
'-y,+x-y,+z'
'2/3-y,1/3+x-y,1/3+z'
'1/3-y,2/3+x-y,2/3+z'
'-x+y,-x,+z'
'2/3-x+y,1/3-x,1/3+z'
'1/3-x+y,2/3-x,2/3+z'
'-x,-y,-z'
'2/3-x,1/3-y,1/3-z'
'1/3-x,2/3-y,2/3-z'
'+y,-x+y,-z'
'2/3+y,1/3-x+y,1/3-z'
'1/3+y,2/3-x+y,2/3-z'
'+x-y,+x,-z'
'2/3+x-y,1/3+x,1/3-z'
'1/3+x-y,2/3+x,2/3-z'

loop_
_atom_site_label
_atom_site_type_symbol
_atom_site_occupancy
_atom_site_fract_x
_atom_site_fract_y
_atom_site_fract_z
    C1    C  1.0000      0.1223    0.4274   -0.1507
    C2    C  1.0000      0.1043    0.4879   -0.1403
    C3    C  1.0000      0.0806    0.4762   -0.1197
    C4    C  1.0000      0.4663   -0.0678   -0.1091
    C5    C  1.0000     -0.3962   -0.4748    0.1198
    C6    C  1.0000      0.1026   -0.3841   -0.1404
    C7    C  1.0000      0.1087   -0.1090    0.1825
    C8    C  1.0000      0.1206   -0.3056   -0.1508
    C9    C  1.0000      0.0498   -0.4760   -0.0868
   C10    C  1.0000     -0.4944    0.4790    0.0439
   C11    C  1.0000      0.0128   -0.4998   -0.0214
   C12    C  1.0000     -0.4534   -0.0244   -0.0110
   C13    C  1.0000      0.4269    0.4396    0.0101
   C14    C  1.0000     -0.0294    0.3476   -0.0200
   C15    C  1.0000      0.4952   -0.4058   -0.0743
   C16    C  1.0000      0.0895    0.4956   -0.0531
   C17    C  1.0000     -0.0227   -0.4754   -0.0564
   C18    C  1.0000     -0.0131   -0.4659   -0.0777
   C19    C  1.0000     -0.3772    0.0701   -0.0898
   C20    C  1.0000      0.4785    0.3314    0.0408
   Cu1    Cu 1.0000      0.1453    0.2908   -0.1513
    H1    H  1.0000      0.3722    0.4176   -0.0200
    H2    H  1.0000      0.1491    0.4995   -0.0816
    H3    H  1.0000     -0.3969    0.0719   -0.0491
    H4    H  1.0000     -0.0817   -0.4744   -0.1053
    H5    H  1.0000     -0.1299   -0.4715   -0.0819
    H6    H  1.0000     -0.0450   -0.3802   -0.0918
    H7    H  1.0000     -0.4990   -0.3476   -0.0247
    H8    H  1.0000      0.1265    0.4119   -0.0404
    H9    H  1.0000      0.2096   -0.4900   -0.0475
   H10    H  1.0000     -0.0396    0.3481   -0.0367
   H11    H  1.0000      0.3136   -0.0227   -0.0179
   H12    H  1.0000      0.2946    0.3789    0.0132
   H13    H  1.0000      0.0728    0.4209   -0.1119
   H14    H  1.0000      0.3481    0.4198   -0.1120
   H15    H  1.0000     -0.1974   -0.0985    0.1665
    O1    O  1.0000     -0.1851    0.0380    0.1643
    O2    O  1.0000      0.1089   -0.2552   -0.1402
    O3    O  1.0000     -0.0385    0.1834    0.1644
    O4    O  1.0000      0.1103    0.3652   -0.1401

