data_MFM-130_ordered
_cell_length_a                  18.7284
_cell_length_b                  18.7284
_cell_length_c                  52.0653
_cell_angle_alpha               90.0000
_cell_angle_beta                90.0000
_cell_angle_gamma              120.0000

_symmetry_space_group_name_H-M     'R 3 2'
_symmetry_Int_Tables_number         155
_symmetry_cell_setting             trigonal

loop_
_symmetry_equiv_pos_as_xyz
'+x,+y,+z'
'2/3+x,1/3+y,1/3+z'
'1/3+x,2/3+y,2/3+z'
'-y,+x-y,+z'
'2/3-y,1/3+x-y,1/3+z'
'1/3-y,2/3+x-y,2/3+z'
'-x+y,-x,+z'
'2/3-x+y,1/3-x,1/3+z'
'1/3-x+y,2/3-x,2/3+z'
'+y,+x,-z'
'2/3+y,1/3+x,1/3-z'
'1/3+y,2/3+x,2/3-z'
'+x-y,-y,-z'
'2/3+x-y,1/3-y,1/3-z'
'1/3+x-y,2/3-y,2/3-z'
'-x,-x+y,-z'
'2/3-x,1/3-x+y,1/3-z'
'1/3-x,2/3-x+y,2/3-z'

loop_
_atom_site_label
_atom_site_type_symbol
_atom_site_occupancy
_atom_site_fract_x
_atom_site_fract_y
_atom_site_fract_z
    C1    C  1.0000     -0.1405    0.2683    0.0585
    C2    C  1.0000     -0.0092    0.2027    0.1743
    C3    C  1.0000      0.0932    0.4541   -0.0200
    C4    C  1.0000     -0.0933   -0.4547    0.0198
    C5    C  1.0000     -0.2823    0.1530    0.0327
    C6    C  1.0000      0.1534    0.4354   -0.0329
    C7    C  1.0000     -0.2243   -0.4487    0.0198
    C8    C  1.0000     -0.1395   -0.4087    0.0584
    C9    C  1.0000     -0.1982    0.1970    0.0717
   C10    C  1.0000     -0.1865   -0.3731    0.0993
   C11    C  1.0000      0.1980    0.3097   -0.1097
   C12    C  1.0000      0.1872    0.2958   -0.1362
   C13    C  1.0000     -0.1755   -0.3420    0.1526
   C14    C  1.0000      0.1538    0.4044   -0.1422
   C15    C  1.0000      0.1641    0.4182   -0.1157
   C16    C  1.0000      0.2195    0.2563   -0.0936
   Cu1    Cu 1.0000      0.4791   -0.4782    0.0193
    H1    H  1.0000      0.2600    0.0085   -0.1634
    H2    H  1.0000     -0.4677   -0.3116   -0.1073
    H3    H  1.0000     -0.2479   -0.0534   -0.0739
    H4    H  1.0000      0.2870    0.2827   -0.0917
    H5    H  1.0000      0.1951    0.1949   -0.1024
    H6    H  1.0000      0.0224    0.1771   -0.1597
    H7    H  1.0000     -0.0445    0.1675   -0.1857
    H8    H  1.0000     -0.1955    0.0510    0.1446
    H9    H  1.0000     -0.3149   -0.3992    0.0682
   H10    H  1.0000      0.3172    0.4015   -0.0680
   H11    H  1.0000      0.2353    0.4708    0.0001
    O1    O  1.0000     -0.4809   -0.1100    0.0032
    O2    O  1.0000     -0.3721   -0.4839   -0.0026
    O3    O  1.0000     -0.0300    0.4104    0.0331
    O4    O  1.0000      0.4127    0.4450   -0.0334

