data_mok
_symmetry_space_group_name_H-M 'C C'
_space_group_IT_number         9
_cell_length_a                 6.37004818
_cell_length_b                 17.29330083
_cell_length_c                 8.78097625
_cell_angle_alpha              90.000000
_cell_angle_beta               89.922361
_cell_angle_gamma              90.000000
loop_
_atom_site_type_symbol
_atom_site_fract_x
_atom_site_fract_y
_atom_site_fract_z
Zn -2.948639214990E-01 -8.692212154715E-02 -2.446596715148E-03
Zn 2.940523973665E-01 -1.177949567762E-01 4.978007859235E-01
N 4.439590289705E-02 4.800166574659E-02 8.653961545650E-03
N -2.111062097664E-01 1.988273177718E-01 -4.934535941389E-01
N 4.533525886920E-01 -9.319715939177E-02 -3.136679900226E-01
N -4.685135643035E-01 -8.642196703908E-02 1.860200458254E-01
C 2.730747596837E-01 -2.341662615941E-01 -4.942494963943E-01
C 4.454602500271E-01 -9.331803503739E-02 3.018918063575E-01
C -4.596636848635E-01 -8.739415304647E-02 -1.980867931634E-01
C -7.618851823387E-02 -2.485826706587E-03 7.537870782363E-03

