data_lcs
_symmetry_space_group_name_H-M 'I -4 3 D'
_space_group_IT_number         220
_cell_length_a                 16.67966390
_cell_length_b                 16.67966390
_cell_length_c                 16.67966390
_cell_angle_alpha              90.000000
_cell_angle_beta               90.000000
_cell_angle_gamma              90.000000
loop_
_atom_site_type_symbol
_atom_site_fract_x
_atom_site_fract_y
_atom_site_fract_z
Zn -2.500000000000E-01 1.250000000000E-01 0.000000000000E+00
Zn 2.500000000000E-01 -1.250000000000E-01 0.000000000000E+00
N -1.883260011529E-01 -3.193503286736E-02 3.450181661143E-01
C 3.108105673039E-01 3.624244646781E-02 3.468346266410E-01

