data_una
_symmetry_space_group_name_H-M 'P 61'
_space_group_IT_number         169
_cell_length_a                 18.79574453
_cell_length_b                 18.79574453
_cell_length_c                 7.77859421
_cell_angle_alpha              90.000000
_cell_angle_beta               90.000000
_cell_angle_gamma              120.000000
loop_
_atom_site_type_symbol
_atom_site_fract_x
_atom_site_fract_y
_atom_site_fract_z
Zn 3.052880954921E-01 -1.294452435052E-01 -3.308719594207E-01
Zn 2.975226048004E-01 4.326807840243E-01 -4.952997701524E-01
N -3.994446890074E-01 -1.784178405191E-01 -3.615784184733E-01
N 1.199206920071E-01 -4.051623380021E-01 9.653482426823E-02
N -3.509839048141E-01 -2.876022546359E-02 -5.476972619125E-02
N 4.714045710813E-01 2.574293905017E-01 -3.518357413597E-01
C -4.647357611740E-01 -2.164893010646E-01 3.044029186477E-02
C 1.202035053867E-01 -4.656744271847E-01 6.723215621998E-02
C 1.808969509941E-01 4.037523707034E-01 1.961060519013E-01
C 2.736459327119E-02 3.548770058568E-01 -1.293577086568E-01

