data_dia-c
_symmetry_space_group_name_H-M 'P -4 3 M'
_space_group_IT_number         215
_cell_length_a                 5.94843577
_cell_length_b                 5.94843577
_cell_length_c                 5.94843577
_cell_angle_alpha              90.000000
_cell_angle_beta               90.000000
_cell_angle_gamma              90.000000
loop_
_atom_site_type_symbol
_atom_site_fract_x
_atom_site_fract_y
_atom_site_fract_z
Zn -8.061742992588E-20 0.000000000000E+00 0.000000000000E+00
Zn 5.000000000000E-01 -5.000000000000E-01 -5.000000000000E-01
N -1.910923194813E-01 -1.910923194813E-01 1.910923194813E-01
C 3.038522844302E-01 -3.038522844302E-01 -3.038522844302E-01

