data_gsi
_symmetry_space_group_name_H-M 'P 21 3'
_space_group_IT_number         198
_cell_length_a                 14.19998926
_cell_length_b                 14.19998926
_cell_length_c                 14.19998926
_cell_angle_alpha              90.000000
_cell_angle_beta               90.000000
_cell_angle_gamma              90.000000
loop_
_atom_site_type_symbol
_atom_site_fract_x
_atom_site_fract_y
_atom_site_fract_z
Zn 3.991977221203E-01 -3.991977221203E-01 1.008022778797E-01
Zn -1.055871720555E-01 3.944128279445E-01 1.055871720555E-01
Zn 3.903011808591E-01 -1.096988191409E-01 -3.903011808591E-01
Zn -1.045638130436E-01 1.045638130436E-01 -3.954361869564E-01
N 2.814884253109E-02 2.814884253109E-02 2.814884253109E-02
N -3.615584520419E-01 -4.727441580898E-01 -2.840958205660E-01
N 1.321821635813E-01 4.735787505332E-01 -2.845965415143E-01
N -4.746247601680E-01 -4.746247601680E-01 -4.746247601680E-01
C -3.705820000713E-01 -2.508027475852E-02 2.209003599762E-01
C 1.906702635357E-02 4.809329736464E-01 -4.809329736464E-01
C -4.781354023208E-01 -2.186459767916E-02 2.186459767916E-02
C 1.354640389707E-01 2.610745012945E-02 2.220516970027E-01

