data_dia
_symmetry_space_group_name_H-M 'R 3 M'
_space_group_IT_number         160
_cell_length_a                 16.88915990
_cell_length_b                 16.88915990
_cell_length_c                 20.67791886
_cell_angle_alpha              90.000000
_cell_angle_beta               90.000000
_cell_angle_gamma              120.000000
loop_
_atom_site_type_symbol
_atom_site_fract_x
_atom_site_fract_y
_atom_site_fract_z
Zn -1.628902190134E-17 -8.156407678175E-18 1.273513734918E-01
Zn 3.312843626587E-01 1.656421813293E-01 -2.103991788651E-01
Zn 1.675620093566E-01 3.351240187131E-01 2.059572820430E-01
Zn 1.695856217373E-17 8.467384359358E-18 -1.225746682811E-01
N 1.679296718954E-01 3.358593437908E-01 3.028127964542E-01
N -1.027087812359E-01 1.027087812359E-01 -1.747406842728E-01
N 3.956626411230E-01 2.924632625703E-01 -1.760176474342E-01
N -1.743203868494E-18 -8.834986617542E-19 3.185533250566E-02
N 6.370625232929E-02 -6.370625232929E-02 1.591562035582E-01
C -6.537217593554E-02 -1.307443518711E-01 -1.554527123181E-01
C 1.014184603208E-01 -1.014184603208E-01 1.768626009509E-01
C 1.008113195482E-01 3.999268787568E-01 1.757079520852E-01
C 2.412744140889E-18 1.194475342938E-18 -2.437511398592E-02
C -1.653653820526E-01 -3.307307641053E-01 -3.076625580958E-01

