data_cfc
_symmetry_space_group_name_H-M 'P 63 M C'
_space_group_IT_number         186
_cell_length_a                 8.44445563
_cell_length_b                 8.44445563
_cell_length_c                 27.56258189
_cell_angle_alpha              90.000000
_cell_angle_beta               90.000000
_cell_angle_gamma              120.000000
loop_
_atom_site_type_symbol
_atom_site_fract_x
_atom_site_fract_y
_atom_site_fract_z
Zn 0.000000000000E+00 0.000000000000E+00 -9.303782596774E-02
Zn 0.000000000000E+00 0.000000000000E+00 -4.058619750288E-01
Zn 3.333333333333E-01 -3.333333333333E-01 -3.445185993528E-01
Zn -3.333333333333E-01 3.333333333333E-01 3.435801636572E-01
N 3.333333333333E-01 -3.333333333333E-01 -2.722124686223E-01
N 2.543621844928E-01 1.271810922464E-01 1.180508345149E-01
N 0.000000000000E+00 0.000000000000E+00 2.236119553271E-02
N 2.540050787278E-01 1.270025393639E-01 3.816141197578E-01
C 3.333333333333E-01 -3.333333333333E-01 -2.300243050815E-01
C 0.000000000000E+00 0.000000000000E+00 -1.979865668232E-02
C 4.040306788361E-01 2.020153394181E-01 1.322298292878E-01
C 4.044499917827E-01 2.022249958914E-01 3.679427069547E-01

