data_che
_symmetry_space_group_name_H-M 'I 21 3'
_space_group_IT_number         199
_cell_length_a                 31.24356702
_cell_length_b                 31.24356702
_cell_length_c                 31.24356702
_cell_angle_alpha              90.000000
_cell_angle_beta               90.000000
_cell_angle_gamma              90.000000
loop_
_atom_site_type_symbol
_atom_site_fract_x
_atom_site_fract_y
_atom_site_fract_z
Zn 2.500000000000E-01 -1.203931410846E-01 -1.501761753430E-17
Zn -2.500000000000E-01 1.245553516937E-01 2.251584426103E-17
Zn 2.032557518639E-01 2.032557518639E-01 2.032557518639E-01
Zn 2.016093734018E-01 2.983906265982E-01 -2.983906265982E-01
Zn 4.544926904158E-01 4.550730958419E-02 -4.550730958419E-02
Zn -4.961898534239E-02 -4.961898534239E-02 -4.961898534239E-02
Zn -3.830492178516E-02 1.170334235979E-01 1.675662494817E-01
Zn 4.608796828162E-01 -1.167609343819E-01 1.708899824628E-01
Zn 3.644639802998E-01 2.851286324268E-01 -7.717612000102E-02
Zn -1.358544937989E-01 -2.876058061892E-01 -7.750475355271E-02
N -1.677851211588E-01 -2.565975993558E-01 -1.234456601880E-01
N -7.325614423581E-03 8.374582182276E-02 1.233415518252E-01
N 3.352630525632E-01 2.560411113690E-01 -1.254574492835E-01
N 4.931577458752E-01 -8.818703939509E-02 1.244399524979E-01
N 4.248056726906E-01 1.987494426600E-01 7.485512845330E-02
N 3.032214669655E-02 2.052035878352E-01 3.426504602278E-01
N -4.869842322786E-01 1.301576772137E-02 4.869842322786E-01
N 2.121091597461E-01 -6.479096553447E-03 3.723460033115E-01
N -2.851769575232E-01 5.997419863716E-03 3.710514831137E-01
N 2.382556356538E-01 2.617443643462E-01 -2.617443643462E-01
N 1.094325739008E-01 8.952708924014E-02 3.166738923180E-01
N -1.621936636685E-01 -1.379747389863E-01 7.013735061393E-02
N -4.518840422244E-02 -2.196577348196E-01 9.222163203029E-02
N 2.999625413660E-02 2.941974831333E-01 -1.554404071387E-01
C -2.588693893969E-01 -3.232057874459E-02 1.267860266610E-01
C 2.385997116389E-01 3.259933268536E-02 1.257466689612E-01
C -7.308365227083E-02 -2.011709833005E-01 7.598637531855E-02
C 3.379172365288E-01 1.332067922494E-01 7.022775832596E-02
C 8.440724952747E-03 -8.440724952747E-03 4.915592750473E-01
C 1.135174217943E-01 4.092646508613E-01 -1.813958264749E-01
C 2.402903546169E-01 2.402903546169E-01 2.402903546169E-01
C -4.709828485432E-02 -2.819802056692E-01 -4.101933291042E-01
C 1.159452253598E-02 6.857171450164E-02 9.516463498333E-02
C -4.867438749502E-01 -7.331499744588E-02 9.695082977716E-02
C 3.204069496138E-01 2.372948818358E-01 -1.539208398064E-01
C -1.814759550103E-01 -2.369537686515E-01 -1.518829815107E-01
C 4.855705371121E-02 1.780484777201E-01 3.249310688900E-01
C 4.832230743320E-02 3.212508940254E-01 -1.732521523718E-01

