data_SOF-10
_symmetry_space_group_name_H-M 'P b c 2 1'
_space_group_IT_number         29
_cell_length_a                 13.57897717
_cell_length_b                 20.25412663
_cell_length_c                 24.00432564
_cell_angle_alpha              90.000000
_cell_angle_beta               90.000000
_cell_angle_gamma              90.000000

loop_
_atom_site_type_symbol
_atom_site_fract_x
_atom_site_fract_y
_atom_site_fract_z
 O  0.321929097      0.328868330     -0.407944798    
 O  0.346968114     -0.425265998     -0.412946612    
 O  0.347345412     -0.374556869     -0.496922106    
 H  0.366953373     -0.331554323     -0.471226692    
 O  0.311165541      0.275239438     -0.490793586    
 H  0.324625134      0.231812775     -0.464706242    
 O  0.123672493      0.328183621       9.38375890E-02
 H  0.110090569      0.282978803       6.98404610E-02
 O  0.145544827      0.373938411       8.34728871E-03
 N  0.455697149     -0.451584131      0.130824149    
 O  0.194358915      0.403444052      0.265036970    
 N  0.244858921      0.445608199      0.365727007    
 H  0.234580040      0.399538577      0.348161131    
 O  0.235478580     -0.445089996      0.334850073    
 N   4.33559045E-02 -0.496594638      0.467701465    
 C  0.432170779      0.432120800      0.125586495    
 O  0.197656348     -0.381165922      -2.24057445E-03
 N  0.396831125     -0.226311237       6.05093092E-02
 N   8.59375671E-02  0.277029276     -0.460328490    
 C  0.272272557      0.449909806      0.421844095    
 N  0.354455858      0.325741947       6.66041747E-02
 C  0.315439999     -0.489360392     -0.494718730    
 C  0.478225023      0.489759296      0.153163835    
 N -0.411761940      0.367756873      0.236912668    
 N -0.358574361     -0.286519647      0.229890779    
 C  0.337458342     -0.426380068     -0.464524448    
 C  0.313073575      0.328443199     -0.459356040    
 N  0.202184603     -0.488570601      0.231530428    
 H  0.213239387     -0.442251086      0.248303220    
 C  0.493801355     -0.395753711      0.151504263    
 C  0.304271907      0.391233772     -0.491861105    
 C  0.164911225      0.441155761       8.95487294E-02
 C -0.452737510      0.484201401      0.197313458    
 C   2.61434689E-02 -0.438074619      0.443870574    
 C  0.319962114      0.451438308     -0.464744478    
 H  0.336666495      0.451722115     -0.420063436    
 C  -1.69734834E-04  0.448577106      0.448342443    
 C  0.190682963     -0.495091110      0.173838153    
 C -0.391385347     -0.336978763      0.214267701    
 C   2.77260374E-02  0.387364030      0.478242099    
 C  0.460740060     -0.335066468      0.122340903    
 C   4.33823876E-02  0.326324016      0.451936066    
 H   3.38893272E-02  0.319392025      0.406966805    
 C -0.404766470     -0.458358079      0.217259198    
 C  -9.27473530E-02 -0.487211823      0.379746914    
 C  0.359434634      0.323593855      0.122434936    
 H  0.333162814      0.277772456      0.141954660    
 C  0.144165337      0.377395511       6.00369163E-02
 C -0.435312033     -0.396827430      0.195187733    
 C  0.172761261      0.443763137      0.147837311    
 H  0.167011291      0.398579895      0.172682419    
 C  0.422805607      0.434581608       6.72966987E-02
 H  0.447553873      0.478444099       4.46142107E-02
 C  0.291478604     -0.489517629      0.448400617    
 H  0.287184954     -0.443149239      0.425077051    
 C -0.322362036     -0.463941932      0.257479876    
 C  0.281026632      0.390346050      0.451411575    
 H  0.269117743      0.342566401      0.430877984    
 C   7.93134943E-02 -0.381393403      0.468406469    
 C  0.397773385      0.375871986      0.153671667    
 H  0.399739921      0.371506959      0.199120775    
 N  0.169011369     -0.274515986     -0.479514718    
 C  -4.25911471E-02 -0.430933297      0.399757266    
 C -0.428293794      0.420938313      0.219547808    
 C  0.198978961     -0.437532544      0.141691491    
 H  0.211687118     -0.389227688      0.161146134    
 C  -6.92577958E-02  0.450921685      0.403877705    
 C  0.192124233     -0.440904349       8.36584643E-02
 C  0.229990110      0.494311512      0.328019708    
 C  0.384452581      0.380240768       3.94839309E-02
 H  0.377178013      0.379376292      -6.02774508E-03
 C  0.404802978     -0.222435921      0.116209634    
 H  0.384841442     -0.174503028      0.134446770    
 N -0.157367215      0.344077855      0.370034724    
 C  0.418635607     -0.283585191       3.48859839E-02
 H  0.410044581     -0.284641773      -1.05641996E-02
 C  0.175969571      0.498389542       5.74562587E-02
 H  0.171666950      0.495668769       1.19003570E-02
 C -0.169824839     -0.479703367      0.336597979    
 C  0.437361717     -0.275333107      0.148802653    
 H  0.443166733     -0.268587142      0.193988636    
 C  0.449257404     -0.339000911       6.41971976E-02
 H  0.465837747     -0.385262668       4.25465256E-02
 C   4.47725542E-02  0.391829580     -0.464084268    
 H   3.54812257E-02  0.439198881     -0.442760646    
 C   7.20260069E-02  0.335454226     -0.434841961    
 H   8.46865848E-02  0.336548328     -0.389710218    
 C   7.37594664E-02  0.272703260      0.484245420    
 H   8.99749398E-02  0.224065170      0.466144055    
 C  0.205835328      0.463789612      0.270997673    
 C   8.72030407E-02 -0.378794581     -0.473328650    
 H   5.58758751E-02 -0.418724984     -0.448140979    
 C  0.199913681     -0.379643977       4.92952764E-02
 N  -8.06635991E-02 -0.313344061      0.361630350    
 C  0.120701276     -0.330156356      0.436794788    
 H  0.119524859     -0.330890477      0.391187996    
 C -0.235724390      0.499520928      0.242293537    
 C  -6.45965934E-02 -0.367108464      0.377832443    
 C  0.131976396     -0.324313670     -0.449029386    
 H  0.137949422     -0.319056988     -0.403614789    
 C -0.158426687      0.491193056      0.282698750    
 C -0.118667655      0.392683029      0.385459572    
 C -0.328610808     -0.434209287      0.309509933    
 H -0.394245803     -0.405527413      0.320579290    
 C -0.252494752     -0.441962123      0.348913312    
 H -0.258930057     -0.419053763      0.390191555    
 C  -6.14791289E-02  0.429856360      0.214546338    
 H   5.52395219E-03  0.402558744      0.203634068    
 C  0.164461285     -0.277147084      0.464656115    
 H  0.194052219     -0.234285951      0.442039758    
 C -0.222086817      0.472810090      0.188158944    
 H -0.278862000      0.477957785      0.155860618    
 C  -7.19842315E-02  0.456119061      0.267314911    
 H  -1.25497943E-02  0.449952453      0.297817439    
 C -0.137092993      0.438796610      0.174876347    
 H -0.129559562      0.418848991      0.132683277    
 O  0.207435414     -0.325446218       7.94697851E-02
 H  0.198379219     -0.283313990       5.15834838E-02

