data_SOF-8
_symmetry_space_group_name_H-M 'P 21/m'
_space_group_IT_number         11
_cell_length_a                 8.37201956
_cell_length_b                 31.51432762
_cell_length_c                 15.27463902
_cell_angle_alpha              90.000000
_cell_angle_beta               98.588070
_cell_angle_gamma              90.000000

loop_
_atom_site_type_symbol
_atom_site_fract_x
_atom_site_fract_y
_atom_site_fract_z
C -4.392846004689E-01 4.119536953152E-01 -3.203051641226E-01
C 4.676641581730E-01 4.081710059829E-01 -1.849161245225E-01
C 7.018797246774E-02 -4.116952374148E-01 1.725413314623E-01
C -6.739598056778E-02 -4.059170213733E-01 3.010140310666E-01
C 4.095907353792E-01 2.728935686177E-01 -3.407537456702E-01
C -4.367198005563E-01 3.670727944055E-01 -3.283579873673E-01
C -2.112373258567E-03 -4.310161606652E-01 2.394033018980E-01
C -4.131939527963E-01 2.722727444392E-01 -1.979116745140E-01
C 3.337676627909E-01 4.715257272652E-01 -1.326897090205E-01
C -2.975285087438E-01 4.770278928367E-01 -3.594833824375E-01
C 4.416395094071E-01 4.195067059776E-01 -2.348841972172E-02
C 4.583126840618E-01 3.631517545701E-01 -1.896430891551E-01
C 1.386370423673E-02 -3.416601560047E-01 2.291141275217E-01
C 7.465044404452E-02 -3.673351398968E-01 1.663152312902E-01
C -4.247096806311E-01 4.322206089767E-01 -4.784017726792E-01
C 1.463331241628E-01 -4.378938925486E-01 1.084117501223E-01
C -1.513917051260E-01 -4.255218891757E-01 3.707900640141E-01
C -5.605744540249E-02 -3.616884019523E-01 2.965302668130E-01
C 2.122109974363E-02 -2.948811764191E-01 2.267640167928E-01
C 3.798430583004E-01 4.440602119296E-01 3.943549851604E-02
C -3.868000115607E-01 4.404166792277E-01 -3.873993312871E-01
C -3.688556461474E-01 3.473102815251E-01 -3.983272738470E-01
C 4.147731392700E-01 4.329182055150E-01 -1.121024197049E-01
C -4.983773448925E-01 2.949240520689E-01 -2.678537028388E-01
C -3.662973474050E-01 4.599025376860E-01 4.626928803712E-01
C 3.928841987693E-01 3.395084081370E-01 -1.236143584439E-01
C -6.462417472113E-03 -2.721598086672E-01 1.465338422168E-01
C -4.931351516772E-01 3.417749123487E-01 -2.628969963128E-01
C -2.433667523680E-01 -4.973188875980E-01 -4.233379357917E-01
C 2.778593799141E-01 4.943276633842E-01 -6.514519389003E-02
C 5.186144707073E-02 -2.720728915385E-01 3.067830378728E-01
C 3.130383128465E-01 2.946179694792E-01 -4.113018575829E-01
C 2.212515745216E-01 2.724140218718E-01 -4.790387748250E-01
H -8.268725908201E-03 -4.656357887134E-01 2.431605191517E-01
H -3.412339830560E-01 2.892017848661E-01 -1.429496343892E-01
H 3.128973674009E-01 4.825024931073E-01 -2.016033962078E-01
H -2.689479507207E-01 4.842083925318E-01 -2.884642035632E-01
H -4.882511031721E-01 3.909354236421E-01 -3.442654367861E-03
H 1.301508874716E-01 -3.534550274872E-01 1.121310272887E-01
H 4.982119875655E-01 4.053826197300E-01 4.972947581066E-01
H -1.062290602308E-01 -3.425662750164E-01 3.459278987282E-01
H 3.955276654391E-01 4.345075863067E-01 1.092923816252E-01
H -3.923957209888E-01 4.549053709530E-01 3.908500946312E-01
H -3.897074560052E-02 -2.894430479888E-01 8.403043598542E-02
H -1.707517652498E-01 -4.687648992214E-01 -4.054332501111E-01
H 2.143478616716E-01 -4.751716816355E-01 -7.598197932071E-02
H 8.046156149060E-02 -2.892741572809E-01 3.696722477031E-01
H 3.084056985480E-01 3.295164773579E-01 -4.116581668907E-01
H 1.465991471831E-01 2.898199098490E-01 4.676570639242E-01
H -2.178279400987E-01 4.598714549848E-03 -8.257414374621E-02
H 2.054192878757E-01 4.806568479769E-01 -4.217065233689E-01
N -4.844415542769E-01 4.312557865877E-01 -2.499187256144E-01
N -2.763097097112E-01 4.940983030586E-01 4.895560361528E-01
N 2.987861811910E-01 4.803929755539E-01 1.901005822278E-02
N -3.079900171381E-01 3.314256019508E-01 -4.547556955064E-01
N 3.378422219954E-01 3.211587878209E-01 -6.803532658432E-02
O -1.468421985091E-01 -4.675575680799E-01 3.698238835912E-01
O 1.536633715106E-01 -4.788064046567E-01 1.288149206063E-01
O 1.987243712924E-01 -4.221385813141E-01 4.408135573121E-02
O -2.187901194031E-01 -4.042208473286E-01 4.228594769133E-01

