data_bulk_AgCN
_cell_length_a                   5.7318
_cell_length_b                   5.7318
_cell_length_c                   5.2392
_cell_angle_alpha               90.0000
_cell_angle_beta                90.0000
_cell_angle_gamma              120.0000

_symmetry_space_group_name_H-M     'R 3 m'
_symmetry_Int_Tables_number         160
_symmetry_cell_setting             trigonal
loop_
_symmetry_equiv_pos_as_xyz
'+x,+y,+z'
'2/3+x,1/3+y,1/3+z'
'1/3+x,2/3+y,2/3+z'
'-y,+x-y,+z'
'2/3-y,1/3+x-y,1/3+z'
'1/3-y,2/3+x-y,2/3+z'
'-x+y,-x,+z'
'2/3-x+y,1/3-x,1/3+z'
'1/3-x+y,2/3-x,2/3+z'
'-y,-x,+z'
'2/3-y,1/3-x,1/3+z'
'1/3-y,2/3-x,2/3+z'
'-x+y,+y,+z'
'2/3-x+y,1/3+y,1/3+z'
'1/3-x+y,2/3+y,2/3+z'
'+x,+x-y,+z'
'2/3+x,1/3+x-y,1/3+z'
'1/3+x,2/3+x-y,2/3+z'

loop_
_atom_site_label
_atom_site_type_symbol
_atom_site_occupancy
_atom_site_fract_x
_atom_site_fract_y
_atom_site_fract_z
   Ag1    Ag 1.0000      0.0000    0.0000    0.0215
    C1    C  1.0000      0.0000    0.0000    0.4082
    N1    N  1.0000      0.0000    0.0000   -0.3711

