data_bulk_AuCN
_cell_length_a                   3.1098
_cell_length_b                   3.1098
_cell_length_c                   5.0824
_cell_angle_alpha               90.0000
_cell_angle_beta                90.0000
_cell_angle_gamma              120.0000

_symmetry_space_group_name_H-M     'P 6 m m'
_symmetry_Int_Tables_number         183
_symmetry_cell_setting             hexagonal
loop_
_symmetry_equiv_pos_as_xyz
'+x,+y,+z'
'-y,+x-y,+z'
'-x+y,-x,+z'
'-x,-y,+z'
'+y,-x+y,+z'
'+x-y,+x,+z'
'-y,-x,+z'
'-x+y,+y,+z'
'+x,+x-y,+z'
'+y,+x,+z'
'+x-y,-y,+z'
'-x,-x+y,+z'

loop_
_atom_site_label
_atom_site_type_symbol
_atom_site_occupancy
_atom_site_fract_x
_atom_site_fract_y
_atom_site_fract_z
   Au1    Au 1.0000      0.0000    0.0000    0.0030
    C1    C  1.0000      0.0000    0.0000    0.3854
    N1    N  1.0000      0.0000    0.0000   -0.3884

