data_MOF5_pbesol0
_symmetry_space_group_name_H-M 'P 21 3'
_space_group_IT_number         198
_cell_length_a                 25.70679697
_cell_length_b                 25.70679697
_cell_length_c                 25.70679697
_cell_angle_alpha              90.000000
_cell_angle_beta               90.000000
_cell_angle_gamma              90.000000
loop_
_atom_site_label
_atom_site_type_symbol
_atom_site_occupancy
_atom_site_fract_x
_atom_site_fract_y
_atom_site_fract_z
_atom_site_charge
Zn1 Zn 1   -4.356223454859E-02 -4.564377654514E-01 4.564377654514E-01  1.501
Zn2 Zn 1   4.564362404025E-01 4.564362404025E-01 4.564362404025E-01    1.501
Zn3 Zn 1   -4.354992299193E-02 4.566572991913E-01 -4.566034258355E-01  1.501
Zn4 Zn 1   -4.566064742185E-01 4.564498245911E-01 -4.566589565553E-01  1.501
H1  H  1  -4.417401156848E-01 -4.413113067674E-01 2.012697741804E-01   0.140
H2  H  1  -2.987306665216E-01 4.417792576932E-01 -4.412707685453E-01   0.140
H3  H  1  4.416474193272E-01 4.411976407153E-01 2.011907489873E-01     0.140
H4  H  1  -4.418225626649E-01 -4.412901018388E-01 2.986176590431E-01   0.140
H5  H  1  4.415585299839E-01 4.412246613617E-01 2.985363369136E-01     0.140
H6  H  1  -2.988010959287E-01 -4.417327447332E-01 4.411170184827E-01   0.140
H7  H  1  -2.014568872540E-01 -4.416462399230E-01 4.411434446801E-01   0.140
H8  H  1  -2.013853250486E-01 4.418666945650E-01 -4.412430830959E-01   0.140
C1 C  1   -4.671325739841E-01 -4.668715372770E-01 2.232146026686E-01  -0.132
C2  C  1  -1.966647521685E-01 -4.998872555507E-01 4.999508048554E-01   0.072
C3  C  1  4.670026251103E-01 4.667713500745E-01 2.231709011249E-01    -0.132
C4  C  1  -2.768217765071E-01 -4.670601767304E-01 4.667158310090E-01  -0.132
C5  C  1  -2.767845422582E-01 4.671473929721E-01 -4.668575061771E-01  -0.132
C6  C  1  4.998663454805E-01 4.999675325924E-01 3.033335286928E-01     0.072
C7  C  1  -2.233633777432E-01 4.671952906447E-01 -4.668406134233E-01  -0.132
C8  C  1  4.998455494565E-01 4.999639717100E-01 3.608233446120E-01     0.667
C9 C  1   -3.035230354717E-01 -4.999799213480E-01 4.999225537833E-01   0.072
C10  C  1 4.999579888333E-01 4.999422401944E-01 1.964721447699E-01     0.072
C11 C  1  -4.999752866950E-01 4.999106967498E-01 1.389882366696E-01    0.667
C12  C  1 -3.610135197363E-01 4.999624765413E-01 4.999045536668E-01    0.667
C13  C  1 -1.391757272790E-01 -4.998571252531E-01 4.999540900528E-01   0.667
C14  C  1 -4.671832399519E-01 -4.668563789626E-01 2.766334750526E-01   -0.132
C15  C  1 4.669496630138E-01 4.667877089292E-01 2.765914407850E-01     -0.132
C16  C  1 -2.234034111184E-01 -4.670092164655E-01 4.667346752746E-01  -0.132
O17  O  1 4.998981159378E-01 4.998981159378E-01 4.998981159378E-01    -1.846
O18  O  1 -3.837950128047E-01 -4.694296514856E-01 4.691066023214E-01  -0.724
O19  O  1 -1.001780240947E-04 -4.998998219759E-01 4.998998219759E-01  -1.846
O20  O  1 4.694247779711E-01 4.691089432824E-01 1.162077642571E-01    -0.724
O21  O  1 -1.164098326148E-01 4.694951143994E-01 -4.692736602818E-01  -0.724
O22  O  1 -1.164290372460E-01 -4.691959112046E-01 4.691904380909E-01  -0.724
O23  O  1 4.691763791504E-01 4.692045483866E-01 3.835721604073E-01    -0.724
O24  O  1 -4.693137274366E-01 -4.693115504767E-01 1.162524662050E-01  -0.724
O25  O  1 -4.694919852537E-01 -4.692805911115E-01 3.835914049741E-01  -0.724
O26  O  1 -3.837493229672E-01 4.693112351628E-01 -4.693100851724E-01  -0.724
