data_CottonbisPPh3MoCO4
_audit_creation_method         'generated by CrystalMaker 8.7.1'
_publ_section_comment
;
(Translated from a Protein Data Bank file)
Classification: CSD ENTRY BEGMUV
Deposition date:
ID code:
;
_cell_length_a                   11.02544724(0)
_cell_length_b                  16.15797484(0)
_cell_length_c                  9.12204237 (0)
_cell_angle_alpha               95.735504(0)
_cell_angle_beta              108.591282(0)
_cell_angle_gamma              102.843048(0)

_symmetry_space_group_name_H-M     'P -1'
_symmetry_Int_Tables_number         2
_symmetry_cell_setting             triclinic
loop_
_symmetry_equiv_pos_as_xyz
'+x,+y,+z'
'-x,-y,-z'

loop_
_atom_site_label
_atom_site_type_symbol
_atom_site_occupancy
_atom_site_fract_x
_atom_site_fract_y
_atom_site_fract_z
    C8    C   1  9.593805798817E-02  1.246749466664E-01  3.321101246320E-01
    C9    C   1  3.452551601017E-01  1.242198862121E-01  4.104234840738E-01
   C10    C   1  1.683084572819E-01  6.310626201567E-02  8.323923964428E-02
   C11    C   1  2.874709458138E-01  2.857905498788E-01  3.900378947939E-01
   C12    C   1 -4.274812136367E-01  2.966451337868E-01  3.603264070236E-01
   C13    C   1 -3.317988191961E-01  2.761573565597E-01  4.802767026889E-01
   C14    C   1 -2.446791354063E-01  3.395138365197E-01 -3.936378601971E-01
   C15    C   1 -2.519864885682E-01  4.239177030337E-01 -3.871063425493E-01
   C16    C   1 -3.485356384101E-01  4.446040227759E-01  4.938935081857E-01
   C17    C   1 -4.350930099662E-01  3.814718784601E-01  3.684146611548E-01
   C18    C   1  4.656948167801E-01  2.572488255533E-01  2.727669751385E-02
   C19    C   1  3.633892716107E-01  2.231760073144E-01 -1.151107627340E-01
   C20    C   1  3.789159634404E-01  2.408977785590E-01 -2.537621591299E-01
   C21    C   1  4.978714709686E-01  2.927887015642E-01 -2.506526275637E-01
   C22    C   1 -4.003107831533E-01  3.284812890640E-01 -1.083554209771E-01
   C23    C   1 -4.166356038266E-01  3.119072875770E-01  3.059535662518E-02
   C24    C   1 -4.677401046620E-01  1.295481368788E-01  1.946741112878E-01
   C25    C   1  4.722021028743E-01  4.397816469996E-02  1.900970530791E-01
   C26    C   1 -4.605102706385E-01 -1.803432119681E-02  1.824462217904E-01
   C27    C   1 -3.327803595631E-01  5.223420543639E-03  1.817106580711E-01
   C28    C   1 -2.721540102440E-01  9.043669522606E-02  1.860078467862E-01
   C29    C   1 -3.395775809430E-01  1.520464794883E-01  1.915898349177E-01
   C30    C   1  1.664260549194E-01  3.236409862830E-01 -3.578045859722E-02
   C31    C   1  2.678844916696E-01  3.946371232773E-01  5.924721087773E-02
   C32    C   1  3.337459181089E-01  4.545267746375E-01 -6.194997701680E-03
   C33    C   1  2.970339539603E-01  4.446894029742E-01 -1.682367262179E-01
   C34    C   1  1.938510859968E-01  3.758193050640E-01 -2.631516335500E-01
   C35    C   1  1.287998632016E-01  3.152071456494E-01 -1.974441982905E-01
   C36    C   1  1.698755682513E-02  3.179756589008E-01  1.578793212199E-01
   C37    C   1 -3.253086276841E-03  3.047510395899E-01  2.968225989613E-01
   C38    C   1 -5.731025371064E-02  3.590389925433E-01  3.679941130730E-01
   C39    C   1 -9.243902339730E-02  4.268356821386E-01  3.003653544636E-01
   C40    C   1 -7.654053231711E-02  4.392000244675E-01  1.589816016230E-01
   C41    C   1 -2.157905993657E-02  3.853081830286E-01  8.859012222161E-02
   C42    C   1 -5.737430496257E-02  1.806768083079E-01 -1.023604412138E-01
   C43    C   1 -4.073164763299E-02  1.221680944768E-01 -2.122079331295E-01
   C44    C   1 -1.462028576379E-01  7.923379879867E-02 -3.469909840430E-01
   C45    C   1 -2.696917142837E-01  9.371830687904E-02 -3.729171708640E-01
   C46    C   1 -2.875482711656E-01  1.497962686940E-01 -2.619715093697E-01
   C47    C   1 -1.824015356105E-01  1.926671475694E-01 -1.267352716952E-01
   H48    H   1 -3.236080604116E-01  2.103631626514E-01  4.758062823586E-01
   H49    H   1 -1.711513120463E-01  3.211612883946E-01 -3.005807336547E-01
   H50    H   1 -1.814822030478E-01  4.742579248145E-01 -2.903827862039E-01
   H51    H   1 -3.570799609726E-01 -4.897195470764E-01  4.988253784379E-01
   H52    H   1  4.900548889355E-01  3.976515794019E-01  2.737157532704E-01
   H53    H   1  2.705996918568E-01  1.821935838814E-01 -1.152210087476E-01
   H54    H   1  2.985802454154E-01  2.136783401820E-01 -3.655142199286E-01
   H55    H   1 -4.871067289567E-01  3.051459851957E-01 -3.592549236221E-01
   H56    H   1 -3.069321610229E-01  3.696683277499E-01 -1.059328396456E-01
   H57    H   1 -3.362886259030E-01  3.409591091487E-01  1.418584604254E-01
   H58    H   1  3.727107965028E-01  2.482650725343E-02  1.938094529819E-01
   H59    H   1  4.907336874141E-01 -8.536581416137E-02  1.741073233418E-01
   H60    H   1 -2.805383341557E-01 -4.390049770141E-02  1.766073118004E-01
   H61    H   1 -1.724225327313E-01  1.088655931588E-01  1.829126397258E-01
   H62    H   1 -2.903230000135E-01  2.189785895799E-01  1.965401665231E-01
   H63    H   1  2.939502379160E-01  4.039715883831E-01  1.864144147981E-01
   H64    H   1  4.122328604701E-01 -4.894488861807E-01  6.794779017201E-02
   H65    H   1  3.468490819355E-01  4.923673132847E-01 -2.209706292616E-01
   H66    H   1  1.632965250646E-01  3.689610789656E-01 -3.901856844579E-01
   H67    H   1  4.933722713033E-02  2.599500527127E-01 -2.725801695818E-01
   H68    H   1  2.571716881562E-02  2.519582338938E-01  3.508096482633E-01
   H69    H   1 -7.310814252244E-02  3.484767161632E-01  4.769315506483E-01
   H70    H   1 -1.346947193023E-01  4.692795324625E-01  3.571061893937E-01
   H71    H   1 -1.095893975030E-01  4.906618921486E-01  1.033834579282E-01
   H72    H   1 -8.278734149268E-03  3.951703167925E-01 -2.200191795118E-02
   H73    H   1  5.621023889346E-02  1.111697594152E-01 -1.948867460036E-01
   H74    H   1 -1.310525477593E-01  3.633951592373E-02 -4.349845371233E-01
   H75    H   1 -3.513213530907E-01  6.193554473914E-02 -4.816671694324E-01
   H76    H   1 -3.829442778263E-01  1.637142359502E-01 -2.834897338577E-01
   H77    H   1 -1.981098994459E-01  2.378216495904E-01 -4.268831801719E-02
   Mo1    MO  1  2.335171672495E-01  1.726547031858E-01  2.467702951906E-01
    O4    O   1  2.696290232702E-02  9.366557245816E-02  3.961773772622E-01
    O5    O   1  4.110880478064E-01  9.882126950409E-02 -4.881089896063E-01
    O6    O   1  1.296927146697E-01  7.641236111804E-04 -8.844203957962E-03
    O7    O   1  3.142500293978E-01  3.522508968070E-01  4.692801014227E-01
    P2    P   1  4.477940982680E-01  2.147039143397E-01  1.988989661845E-01
    P3    P   1  8.791746050716E-02  2.457563833848E-01  6.196041892078E-02

