data_NeverbisPPh3MoCO4
_audit_creation_method         'generated by CrystalMaker 8.7.1'
_publ_section_comment
;
Deposition date:
ID code:
;
_cell_length_a                    9.51722871(7)
_cell_length_b                  35.87236526(30)
_cell_length_c                   9.50237601 (7)
_cell_angle_alpha               90.0000(0)
_cell_angle_beta              109.433865(10)
_cell_angle_gamma               90.0000(0)


loop_
_symmetry_equiv_pos_as_xyz
'+x,+y,+z'
'-x,1/2+y,1/2-z'
'-x,-y,-z'
'+x,1/2-y,1/2+z'

loop_
_atom_site_label
_atom_site_type_symbol
_atom_site_occupancy
_atom_site_fract_x
_atom_site_fract_y
_atom_site_fract_z
    C1 C   1 -2.289987675584E-02  1.042078180420E-01 -3.694473160815E-01
    C3 C   1 -8.459310537275E-02  9.999837508314E-02 -1.037544364573E-01
    C5 C   1 -2.408252111399E-01  1.564103728726E-01 -4.890677529546E-01
    C7 C   1 -8.872386883144E-03  1.657622846046E-01 -2.072991702468E-01
   C11 C   1 -4.498670337667E-01  1.428509883491E-01 -8.504857855054E-02
   C12 C   1  4.616297812977E-01  1.133244718654E-01 -1.573508196613E-01
   C13 C   1  3.490410853236E-01  1.001363874942E-01 -1.092666750061E-01
   C14 C   1  3.249510173237E-01  1.159928783407E-01  1.301145219502E-02
   C15 C   1  4.119966390752E-01  1.456274935216E-01  8.547483769420E-02
   C16 C   1 -4.762452869317E-01  1.590579245947E-01  3.698974601392E-02
   C21 C   1 -4.430285098368E-01  1.997262263889E-01 -2.855864540083E-01
   C22 C   1  4.108693358946E-01  2.048382410099E-01 -2.906620171198E-01
   C23 C   1  3.239934900078E-01  2.320474487935E-01 -3.817084004290E-01
   C24 C   1  3.790338733922E-01  2.528512969396E-01 -4.737990160540E-01
   C25 C   1 -4.775772031367E-01  2.468286812688E-01 -4.732105268972E-01
   C26 C   1 -3.881430164462E-01  2.210123980538E-01 -3.776766228662E-01
   C31 C   1 -1.985730684348E-01  1.903482104586E-01 -1.094507376549E-02
   C32 C   1 -1.557355770826E-01  2.265025347870E-01 -2.808636333362E-02
   C33 C   1 -5.761881995986E-02  2.451901640706E-01  9.183223280927E-02
   C34 C   1 -7.741020988405E-04  2.280314223007E-01  2.293331820356E-01
   C35 C   1 -4.314963689666E-02  1.919363421625E-01  2.464531224340E-01
   C36 C   1 -1.406039566458E-01  1.730870327497E-01  1.271510161790E-01
   C41 C   1  4.632253282122E-01  9.091364797455E-02  4.792095972606E-01
   C42 C   1  3.585525928981E-01  6.474839939349E-02  4.010022776429E-01
   C43 C   1  2.142353170188E-01  7.592861125395E-02  3.267830753359E-01
   C44 C   1  1.749674924003E-01  1.131144308065E-01  3.240492742550E-01
   C45 C   1  2.790422157543E-01  1.392869374798E-01  3.989951525669E-01
   C46 C   1  4.224927348690E-01  1.280191649961E-01  4.769796212508E-01
   C51 C   1 -3.534771340501E-01  3.929675443645E-02 -3.017737766070E-01
   C52 C   1 -2.204513434935E-01  2.249086333855E-02 -2.165847830183E-01
   C53 C   1 -2.204090062625E-01 -6.185013506400E-03 -1.199473977973E-01
   C54 C   1 -3.529672638637E-01 -1.775590468838E-02 -1.043850064958E-01
   C55 C   1 -4.844532642249E-01 -5.966052893158E-04 -1.850570044982E-01
   C56 C   1 -4.854016602090E-01  2.758087879171E-02 -2.843309742736E-01
   C61 C   1 -2.885261189473E-01  5.855269229982E-02  4.297973974389E-01
   C62 C   1 -3.210495289539E-01  7.886844920251E-02  2.985380939841E-01
   C63 C   1 -2.630270917246E-01  6.824418070939E-02  1.896531415177E-01
   C64 C   1 -1.711860826395E-01  3.736028679536E-02  2.110364919715E-01
   C65 C   1 -1.424856805969E-01  1.639086281965E-02  3.395025795361E-01
   C66 C   1 -2.015659779075E-01  2.684173853320E-02  4.481363814930E-01
   H12 H   1  4.775808326351E-01  1.010749694285E-01 -2.552212690521E-01
   H13 H   1  2.796355275570E-01  7.733030580111E-02 -1.692990575907E-01
   H14 H   1  2.395638826001E-01  1.052861145375E-01  5.476011299232E-02
   H15 H   1  3.925155156358E-01  1.579984506960E-01  1.816761498696E-01
   H16 H   1 -4.103855612206E-01  1.827030700519E-01  9.337454224244E-02
   H22 H   1  3.655215858073E-01  1.876263221505E-01 -2.220633335197E-01
   H23 H   1  2.122918065169E-01  2.374405552405E-01 -3.798800584825E-01
   H24 H   1  3.103321422661E-01  2.741049357222E-01  4.541032544410E-01
   H25 H   1 -4.347550204619E-01  2.624067592570E-01  4.520029143679E-01
   H26 H   1 -2.742919178055E-01  2.171330624650E-01 -3.757689345641E-01
   H32 H   1 -1.995989106523E-01  2.404893435234E-01 -1.353364289522E-01
   H33 H   1 -2.698924527414E-02  2.738127462154E-01  7.775368247291E-02
   H34 H   1  7.623017717281E-02  2.428443154637E-01  3.231354745750E-01
   H35 H   1 -9.940216308543E-04  1.781738987222E-01  3.542910724212E-01
   H36 H   1 -1.761111447980E-01  1.450268196973E-01  1.431961574100E-01
   H42 H   1  3.896525287618E-01  3.563203843747E-02  3.989624364761E-01
   H43 H   1  1.300383211148E-01  5.566059054251E-02  2.697473577794E-01
   H44 H   1  6.159851663412E-02  1.215171811507E-01  2.627023906732E-01
   H45 H   1  2.498532999449E-01  1.686098834031E-01  3.981175046346E-01
   H46 H   1 -4.954903304737E-01  1.483805897312E-01 -4.623208083185E-01
   H52 H   1 -1.158537233400E-01  3.246786395162E-02 -2.255091395025E-01
   H53 H   1 -1.162536328154E-01 -1.962814788007E-02 -5.617520592634E-02
   H54 H   1 -3.557398338747E-01 -4.073583263083E-02 -3.112323305283E-02
   H55 H   1  4.118288274083E-01 -9.369728079091E-03 -1.714540851674E-01
   H56 H   1  4.096050328551E-01  4.023819167231E-02 -3.500079582989E-01
   H62 H   1 -3.961494747521E-01  1.025979233060E-01  2.784463108280E-01
   H63 H   1 -2.947890775522E-01  8.349692341494E-02  8.480363039903E-02
   H64 H   1 -1.285642828692E-01  2.890933444977E-02  1.233465074303E-01
   H65 H   1 -7.516229723557E-02 -8.748704297076E-03  3.564028266366E-01
   H66 H   1 -1.811825846315E-01  9.644544570959E-03 -4.530031301711E-01
   Mo1 MO  1 -1.662188727856E-01  1.289510132619E-01 -2.929269449282E-01
    O2 O   1  6.478010755622E-02  9.012391223421E-02 -4.117214465729E-01
    O4 O   1 -2.986013308116E-02  8.352073427285E-02  4.979230713541E-03
    O6 O   1 -2.807333330419E-01  1.708723362406E-01  3.964578313794E-01
    O8 O   1  9.041385020440E-02  1.859114070063E-01 -1.576906261734E-01
    P1 P   1 -3.219084272655E-01  1.640569349150E-01 -1.688466667848E-01
    P2 P   1 -3.443128420612E-01  7.855548709390E-02 -4.199483800579E-01



































