data_CMOF5_NMP12mol
_symmetry_space_group_name_H-M 'P 21 3'
_space_group_IT_number         198
_cell_length_a                 25.67978205
_cell_length_b                 25.67978205
_cell_length_c                 25.67978205
_cell_angle_alpha              90.000000
_cell_angle_beta               90.000000
_cell_angle_gamma              90.000000
loop_
_atom_site_type_symbol
_atom_site_fract_x
_atom_site_fract_y
_atom_site_fract_z
C 4.624057657004E-01 4.732557661148E-01 -2.222421309656E-01
C 2.784378679804E-01 4.662859377598E-01 -4.659724130966E-01
C -4.637298859914E-01 -4.693500984582E-01 -2.213345295892E-01
C 3.048578853542E-01 -4.993708359286E-01 -4.980091714435E-01
C 2.249630679063E-01 4.659041607072E-01 -4.658486058746E-01
C -2.483071962531E-01 -4.605719705394E-01 -3.312282419989E-01
C 4.625864291154E-01 4.738239879533E-01 -2.757143999012E-01
C 1.979235337928E-01 4.998349592040E-01 -4.977937489326E-01
C -2.881406470373E-01 4.969805409673E-01 -3.421983721935E-01
C 4.992453011890E-01 -4.983069860241E-01 -1.950368501947E-01
C 4.992816815338E-01 -4.967374931162E-01 -3.020686667479E-01
C 3.624133113462E-01 -4.990607638911E-01 -4.982138751307E-01
C -3.400770720927E-01 -4.762220350350E-01 -3.339612020519E-01
C 4.988767592876E-01 -4.986600087450E-01 -1.374963017967E-01
C -4.638995627891E-01 -4.681218679460E-01 -2.749072086429E-01
C 2.778155056871E-01 -4.653968201198E-01 4.700883031797E-01
C 4.997202690377E-01 -4.967642032440E-01 -3.596101576727E-01
C 2.243435939027E-01 -4.658088654257E-01 4.701832922591E-01
C -2.512064709335E-01 -3.792781584363E-01 -2.774807354474E-01
C 1.403434600399E-01 4.993394418682E-01 -4.978547486649E-01
C -3.279968221563E-01 -4.306917550471E-01 -2.991279712636E-01
H -2.207255303980E-01 -3.891717573440E-01 -2.493880722267E-01
H -3.703566303349E-01 4.992893500874E-01 -3.169311762345E-01
H -2.366766278176E-01 -4.398271018601E-01 -3.666725122596E-01
H -2.833627827172E-01 4.649196280062E-01 -3.146146674098E-01
H 2.020880342986E-01 -4.396914360918E-01 4.455431230276E-01
H -2.836706021755E-01 4.815001258349E-01 -3.815022294771E-01
H 2.995811418145E-01 -4.389381327309E-01 4.453773456566E-01
H -4.350415638473E-01 -4.447844146013E-01 -2.951845488023E-01
H -2.341791608003E-01 -3.572943191811E-01 -3.097991737597E-01
H -2.131454005378E-01 -4.752394283177E-01 -3.120655411366E-01
H -2.809222769352E-01 -3.557238351237E-01 -2.584185809874E-01
H -4.344046438443E-01 -4.481063651145E-01 -1.995434619850E-01
H -3.558379121114E-01 -4.604781043918E-01 -3.703548953246E-01
H 3.006681628027E-01 4.401104570179E-01 -4.413749279964E-01
H 4.339132323028E-01 4.507910258339E-01 -2.006089660713E-01
H 2.032153094062E-01 4.394007867444E-01 -4.411668763896E-01
H 4.343507298051E-01 4.516577127500E-01 -2.979835811474E-01
N -2.758710232038E-01 -4.251507206888E-01 -2.972543371801E-01
O 1.178950407029E-01 4.672313677352E-01 -4.683766962181E-01
O -4.986359822616E-01 -4.986359822616E-01 -4.986359822616E-01
O 3.848421374654E-01 -4.665347889717E-01 4.727507721446E-01
O 1.175245093519E-01 -4.689442756075E-01 4.725717144512E-01
O 4.692161403644E-01 4.723793287322E-01 -3.824431952417E-01
O 1.515735190664E-03 4.984842648093E-01 -4.984842648093E-01
O -3.595328067739E-01 -4.026408567930E-01 -2.767505131400E-01
O 4.658321768165E-01 4.728159694601E-01 -1.151584253286E-01
O 3.853146779621E-01 4.686180655500E-01 -4.693385912382E-01
O -4.685322099434E-01 -4.701959168160E-01 -1.145065742178E-01
O -4.692553205615E-01 -4.662205048152E-01 -3.822521045565E-01
Zn 4.575567327969E-01 -4.551063050521E-01 4.581341810265E-01
Zn 4.478435252243E-02 -4.581100759928E-01 4.575680481730E-01
Zn -4.551613398266E-01 -4.551613398266E-01 -4.551613398266E-01
Zn 4.501521992934E-02 4.549847800707E-01 -4.549847800707E-01
