data_CMOF5_DMF24mol
_symmetry_space_group_name_H-M 'P 21 3'
_space_group_IT_number         198
_cell_length_a                 25.68920823
_cell_length_b                 25.68920823
_cell_length_c                 25.68920823
_cell_angle_alpha              90.000000
_cell_angle_beta               90.000000
_cell_angle_gamma              90.000000
loop_
_atom_site_type_symbol
_atom_site_fract_x
_atom_site_fract_y
_atom_site_fract_z
Zn 4.038123507888E-02 4.596187649211E-01 -4.596187649211E-01
Zn 4.563335739818E-01 -4.577633790776E-01 4.533731118831E-01
Zn 4.148986151131E-02 -4.550063894689E-01 4.553098385073E-01
Zn -4.586499475838E-01 -4.586499475838E-01 -4.586499475838E-01
H 1.622738735415E-01 -4.197220820968E-01 -4.164743861563E-01
H -4.575561592513E-01 -2.498922864736E-01 -1.321736460778E-01
H 4.907027064569E-01 -3.494136752406E-01 -1.835110346215E-01
H 1.995098981739E-01 -4.521108268670E-01 4.268748585320E-01
H 1.079078833941E-01 -3.019738091188E-01 -3.436130284256E-01
H 6.612044746895E-02 -2.923710714810E-01 -3.984313484508E-01
H -4.838424559964E-01 -2.508939978274E-01 -1.961936500185E-01
H 1.912276748883E-01 -3.567112229652E-01 -4.194888996558E-01
H -4.578126786840E-01 -3.904003136633E-01 -1.621504883209E-01
H 2.970302173135E-01 -4.515602331585E-01 4.275072235644E-01
H -4.313424612579E-01 -4.549604136697E-01 -3.026253034395E-01
H 1.337863851510E-01 -2.807130272605E-01 -4.040291899512E-01
H -4.261253847990E-01 -4.567782195967E-01 -2.062964029488E-01
H 3.506874407071E-02 -3.643225493389E-01 -4.214364013917E-01
H 2.964230243055E-01 4.581860687150E-01 -4.336077370718E-01
H -4.846687860962E-01 -3.435320320160E-01 -1.187276393508E-01
H -3.673661162493E-01 -2.970268634067E-01 -2.122171018968E-01
H 1.751904222985E-01 -3.843160808339E-01 -3.580978848169E-01
H 4.361676779977E-01 4.500828413232E-01 -2.007972740196E-01
H 1.988031732245E-01 4.573917312416E-01 -4.346078906137E-01
H -4.170584301313E-01 -2.364159872712E-01 -1.868070726631E-01
H 4.309679791773E-01 4.526413188508E-01 -2.982642658309E-01
C 3.016305790124E-01 -4.964400623394E-01 4.972344868214E-01
C 2.210427814332E-01 4.777067654499E-01 -4.642107495501E-01
C 1.630975231482E-01 -3.811428266837E-01 -3.988221037071E-01
C 4.617377912536E-01 4.725542310576E-01 -2.772867772772E-01
C 1.943354802058E-01 -4.972034640858E-01 4.963531013699E-01
C -4.951929921858E-01 4.967372827331E-01 -1.985663100191E-01
C 4.995865369952E-01 4.988510026848E-01 -3.052609524818E-01
C 3.591618859062E-01 -4.978955555025E-01 4.968973155583E-01
C -4.928549002431E-01 4.952069785437E-01 -1.409563765363E-01
C -4.604413919903E-01 -4.754157105820E-01 -2.798866993335E-01
C 2.749635450602E-01 -4.707464853041E-01 4.580028133874E-01
C -3.920714844836E-01 -3.301779293302E-01 -2.000986979261E-01
C 4.980912605388E-01 4.985386176512E-01 -3.626374552928E-01
C 2.214163626979E-01 -4.710686687751E-01 4.576312361927E-01
C -4.742259681682E-01 -3.514434416343E-01 -1.592485325486E-01
C 1.365005226441E-01 -4.994587217912E-01 4.947557090761E-01
C 7.201352606991E-02 -3.860993678426E-01 -4.223548556919E-01
C 4.644550023750E-01 4.713258557928E-01 -2.238944381399E-01
C 2.745862031219E-01 4.780581533173E-01 -4.637935402626E-01
C -4.494144176703E-01 -2.600936106730E-01 -1.727464606918E-01
C 1.044906616300E-01 -3.058173625485E-01 -3.859221737999E-01
C -4.576591458845E-01 -4.764728540552E-01 -2.264498006340E-01
N 1.118639097984E-01 -3.587884124571E-01 -4.025230062405E-01
N -4.362711158850E-01 -3.142636853796E-01 -1.770250418693E-01
O 7.490843340303E-02 -4.302221464601E-01 -4.398393912786E-01
O 4.644428218465E-01 4.703346640107E-01 -3.847651741126E-01
O -2.721793080577E-03 -4.972782069194E-01 4.972782069194E-01
O 4.766501549852E-01 4.643704411015E-01 -1.181653734013E-01
O 3.810904441203E-01 4.722732870482E-01 -4.709284535872E-01
O -4.617271767245E-01 -4.741183075498E-01 -1.188873845338E-01
O -4.690644477299E-01 -4.737743985262E-01 -3.862339109937E-01
O 4.978106438200E-01 4.978106438200E-01 4.978106438200E-01
O -3.792155156545E-01 -3.752408774609E-01 -2.072617621525E-01
O 3.827017532919E-01 -4.695601046645E-01 4.644333503714E-01
O 1.147109554960E-01 -4.707960383317E-01 4.613351082692E-01
O 1.143598286997E-01 4.703328540626E-01 -4.740255666620E-01
