data_CMOF5_DMF12mol
_symmetry_space_group_name_H-M 'P 21 3'
_space_group_IT_number         198
_cell_length_a                 25.66930097
_cell_length_b                 25.66930097
_cell_length_c                 25.66930097
_cell_angle_alpha              90.000000
_cell_angle_beta               90.000000
_cell_angle_gamma              90.000000
loop_
_atom_site_type_symbol
_atom_site_fract_x
_atom_site_fract_y
_atom_site_fract_z
C 4.658911289047E-01 4.588642269442E-01 -2.283104281795E-01
C 6.327619035788E-02 -2.977381299160E-01 -3.877805257906E-01
C -4.615661587218E-01 -4.820375459225E-01 -2.300603653770E-01
C 2.977948696504E-01 -4.988561827958E-01 4.934155017961E-01
C 2.163730264189E-01 4.722764532095E-01 -4.723256924931E-01
C 1.103984085792E-01 -3.347636943796E-01 -4.627173714670E-01
C 4.628316849275E-01 4.610706232414E-01 -2.817948014213E-01
C 1.907958849343E-01 -4.935667520185E-01 4.947702403241E-01
C -4.964970663252E-01 4.875316225304E-01 -2.023868339719E-01
C 4.975267731655E-01 4.918621814577E-01 -3.093367048809E-01
C 3.552185741365E-01 4.983690208276E-01 4.928572539014E-01
C -4.941441061402E-01 4.868146313871E-01 -1.445193425993E-01
C -4.647128633513E-01 -4.796600291443E-01 -2.834451359826E-01
C 2.722532189760E-01 -4.646878487490E-01 4.604490263333E-01
C 4.950780752427E-01 4.936718776676E-01 -3.668140316347E-01
C 2.188071680459E-01 -4.620605012387E-01 4.611803831037E-01
C 1.329324026403E-01 -4.911813725902E-01 4.952626069258E-01
C 5.025322100721E-02 -3.876714739626E-01 -4.130890089520E-01
C 2.697978518253E-01 4.696492853666E-01 -4.729383122862E-01
H -4.378303934557E-01 -4.561894201309E-01 -3.060808789997E-01
H 1.138687610464E-01 -3.714785976150E-01 -4.837393188497E-01
H 1.977232566845E-01 -4.355328597877E-01 4.359019142414E-01
H 9.949114516634E-02 -2.823923653336E-01 -3.713702292739E-01
H 3.786301126808E-02 -3.098340569028E-01 -3.559173802235E-01
H 9.632003848371E-02 -3.043855169218E-01 -4.890700838860E-01
H 2.951512851020E-01 -4.404146392678E-01 4.345034058050E-01
H 4.360108443798E-02 -2.669751957287E-01 -4.098186884892E-01
H -4.321624014189E-01 -4.605542441403E-01 -2.085999820973E-01
H 2.406849248011E-02 -3.877662536423E-01 -3.789665895019E-01
H 2.908167926505E-01 4.432220600396E-01 -4.475187248110E-01
H 1.483578777468E-01 -3.232554672124E-01 -4.470606331883E-01
H 4.392624003519E-01 4.351928157083E-01 -2.055648391503E-01
H 1.933118980652E-01 4.480555433767E-01 -4.464907031867E-01
H 4.338007778769E-01 4.389879767919E-01 -3.031619829076E-01
N 7.381746185069E-02 -3.417986573411E-01 -4.206945727593E-01
O 1.097352256093E-01 4.787808049153E-01 -4.742201196885E-01
O 4.940869123540E-01 4.940869123540E-01 4.940869123540E-01
O 3.791515712333E-01 -4.725694654323E-01 4.613645192261E-01
O 1.122379937754E-01 -4.591686571637E-01 4.640479977766E-01
O 5.574268519505E-02 -4.261747821301E-01 -4.406085502901E-01
O 4.610841131752E-01 4.663059993937E-01 -3.891460804511E-01
O -7.278584237440E-03 -4.927214157626E-01 4.927214157626E-01
O 4.752099657280E-01 4.564542189813E-01 -1.213532236258E-01
O 3.767529298393E-01 4.671387041645E-01 -4.759895036865E-01
O -4.623188735596E-01 -4.825002848110E-01 -1.236102700293E-01
O -4.724495166547E-01 -4.775971508774E-01 -3.897499857947E-01
Zn 4.523807366136E-01 -4.621728939963E-01 4.488870487202E-01
Zn 3.827313486549E-02 -4.492473118426E-01 4.538813999915E-01
Zn -4.624752064176E-01 -4.624752064176E-01 -4.624752064176E-01
Zn 3.588788755814E-02 4.641121124419E-01 -4.641121124419E-01
