data_CMOF5_NMP24mol
_symmetry_space_group_name_H-M 'P 21 3'
_space_group_IT_number         198
_cell_length_a                 25.42150829
_cell_length_b                 25.42150829
_cell_length_c                 25.42150829
_cell_angle_alpha              90.000000
_cell_angle_beta               90.000000
_cell_angle_gamma              90.000000
loop_
_atom_site_type_symbol
_atom_site_fract_x
_atom_site_fract_y
_atom_site_fract_z
Zn 6.761273139221E-02 4.323872686078E-01 -4.323872686078E-01
Zn 4.740225246717E-01 -4.334918975709E-01 4.855245938831E-01
Zn 6.648438975296E-02 -4.857080482050E-01 4.739289818310E-01
Zn -4.323735708615E-01 -4.323735708615E-01 -4.323735708615E-01
H -2.849257989830E-01 -4.453661684450E-01 -3.037556259526E-01
H -2.503939706740E-01 -3.098345867501E-01 -2.310980807553E-01
H 1.447332228830E-01 -3.719111958213E-01 -4.157854904041E-01
H -2.032807375698E-01 -4.122553621822E-01 -2.704012632664E-01
H 2.976525862622E-01 -3.146802250276E-01 -3.481233161230E-01
H 2.190163712049E-01 -4.675085844705E-01 4.556082394160E-01
H -2.196805611685E-01 -3.564943878168E-01 -3.081474635402E-01
H 3.215088472292E-01 -3.715954938450E-01 -3.169872322752E-01
H 3.161886222502E-01 -4.510057467784E-01 4.590327006574E-01
H -4.433399706532E-01 -4.012790076113E-01 -2.702261366800E-01
H 1.778873328179E-01 -3.097505138370E-01 -3.292143704044E-01
H 2.489787810612E-01 -3.064893416071E-01 -2.661338978281E-01
H -2.653835592287E-01 -3.789962449289E-01 -1.186648232270E-01
H -3.083914687890E-01 -3.279989696737E-01 -1.395315743054E-01
H -2.045632946707E-01 -3.518606362134E-01 -1.999355770829E-01
H -3.314715038770E-01 -3.941603578556E-01 -1.373221532233E-01
H -4.582588818840E-01 -3.986454774549E-01 -1.732950790970E-01
H 1.381727727818E-01 -4.270303461836E-01 -3.732065496860E-01
H -3.117512740174E-01 -3.821432459156E-01 -3.104690490799E-01
H 3.273308107824E-01 4.545785006237E-01 -4.033831608473E-01
H 2.477865397266E-01 -3.752836406359E-01 -2.578889529181E-01
H 4.514836751708E-01 4.605643374638E-01 -1.832080072285E-01
H 2.298984967461E-01 4.394277221739E-01 -4.056752781058E-01
H 4.675274809817E-01 4.574167503973E-01 -2.803229337306E-01
H 1.871845937973E-01 -4.272634339375E-01 -4.234959249667E-01
H 1.616623136196E-01 -3.661798593880E-01 -2.919157542584E-01
C 3.263799895524E-01 -4.980314528976E-01 -4.724465043725E-01
C 2.495487271568E-01 4.629800125065E-01 -4.353369673080E-01
C -2.398344781351E-01 -3.513872573467E-01 -2.246399439184E-01
C 4.828923228497E-01 4.890701592726E-01 -2.562114931309E-01
C 2.198764158363E-01 4.847412467593E-01 -4.755314965468E-01
C -2.329091791843E-01 -3.816219546433E-01 -2.759400706860E-01
C 4.953728905426E-01 -4.686261011887E-01 -1.735286439014E-01
C -4.875115725094E-01 -4.719277296032E-01 -2.800952674083E-01
C 3.837177636576E-01 -4.889885128529E-01 -4.709902500054E-01
C -2.862525966009E-01 -4.065106369682E-01 -2.856569571278E-01
C 4.876668425536E-01 -4.685573170394E-01 -1.160503022429E-01
C -4.669352264557E-01 -4.309702726260E-01 -2.507998171726E-01
C 2.966643787491E-01 -4.754797226030E-01 4.879828299549E-01
C -4.783545875970E-01 -4.748811497593E-01 -3.373833016665E-01
C 2.575086647940E-01 -3.837598682638E-01 -3.709750271015E-01
C 2.434243653627E-01 -4.842648976446E-01 4.863084635711E-01
C -2.975068810925E-01 -3.692795475629E-01 -1.456267296909E-01
C 1.925834532166E-01 -3.482339603685E-01 -3.159253938246E-01
C 1.626381236116E-01 4.757450140913E-01 -4.778685507934E-01
C 2.857004333896E-01 -3.517637924300E-01 -3.297512639159E-01
C 2.449154404796E-01 -3.438035536647E-01 -2.870500509337E-01
C 4.741154241761E-01 4.908151505880E-01 -2.030334455703E-01
C 1.663725045403E-01 -4.028749092947E-01 -3.949755634572E-01
C 3.028972654710E-01 4.712117760495E-01 -4.341290570480E-01
C -3.112259915406E-01 -4.095214288528E-01 -2.319461769335E-01
C -4.751674055371E-01 -4.295295526375E-01 -1.973501128813E-01
N -2.824612729186E-01 -3.787087621105E-01 -1.990595970140E-01
N 2.052245595232E-01 -3.813486151087E-01 -3.602503516717E-01
O -4.964038101507E-01 4.853988359960E-01 -3.610287398510E-01
O 2.365222113203E-02 4.763477788680E-01 -4.763477788680E-01
O -3.506289319734E-01 -4.337127997255E-01 -2.195433539618E-01
O 4.560567042813E-01 4.981184229710E-01 -9.717592778339E-02
O 4.103708609537E-01 4.843433723858E-01 -4.388187246833E-01
O -4.868315884586E-01 -4.356340082762E-01 -8.907630643768E-02
O -4.535963739662E-01 -4.378950438349E-01 -3.593059378842E-01
O -4.763882475984E-01 -4.763882475984E-01 -4.763882475984E-01
O 2.771659845535E-01 -4.069651541542E-01 -4.079327584359E-01
O 4.026143803838E-01 -4.558806416007E-01 4.972819212433E-01
O 1.385387088232E-01 4.925987029431E-01 4.821079809422E-01
O 1.409339303483E-01 4.519428128114E-01 -4.400638881077E-01
