data_ja5b11150_si_002_cleaned
_cell_length_a                  25.3504(6)
_cell_length_b                  25.3504(6)
_cell_length_c                  25.3504(6)
_cell_angle_alpha               90.0000(0)
_cell_angle_beta                90.0000(0)
_cell_angle_gamma               90.0000(0)

loop_
_symmetry_equiv_pos_as_xyz
'+x,+y,+z'
'+z,+x,+y'
'+y,+z,+x'
'1/2-y,-z,1/2+x'
'1/2+z,1/2-x,-y'
'-y,1/2+z,1/2-x'
'1/2-z,-x,1/2+y'
'-z,1/2+x,1/2-y'
'1/2+y,1/2-z,-x'
'1/2-x,-y,1/2+z'
'1/2+x,1/2-y,-z'
'-x,1/2+y,1/2-z'

loop_
_atom_site_label
_atom_site_type_symbol
_atom_site_occupancy
_atom_site_fract_x
_atom_site_fract_y
_atom_site_fract_z
    C1    C  1      0.6087    0.4871    0.4588
    C2    C  1      0.6656    0.5003    0.4602
    C3    C  1      0.6879    0.5359    0.4256
    C4    C  1      0.7412    0.5463    0.4286
    C5    C  1      0.7716    0.5264    0.4660
    C6    C  1      0.7480    0.4906    0.5048
    C7    C  1      0.6975    0.4783    0.5001
    C8    C  1      0.8315    0.5339    0.4731
  C10A    C  1      0.5177    0.4635    0.1078
  C11A    C  1      0.5093    0.4583    0.1656
  C12A    C  1      0.5465    0.4762    0.2017
  C13A    C  1      0.5376    0.4705    0.2555
  C14A    C  1      0.4914    0.4470    0.2732
  C15A    C  1      0.4541    0.4291    0.2372
  C16A    C  1      0.4631    0.4348    0.1834
  C17A    C  1      0.4836    0.4477    0.3306
    H3    H  1      0.6667    0.5532    0.3999
    H4    H  1      0.7568    0.5686    0.4028
    H6    H  1      0.7686    0.4765    0.5328
    H7    H  1      0.6823    0.4539    0.5242
  H12A    H  1      0.5781    0.4923    0.1895
  H13A    H  1      0.5630    0.4827    0.2801
  H15A    H  1      0.4225    0.4130    0.2493
  H16A    H  1      0.4376    0.4225    0.1587
    O1    O  1      0.5813    0.5214    0.4314
    O2    O  1      0.5923    0.4452    0.4834
    O3    O  1      0.8515    0.5635    0.4391
    O4    O  1      0.8550    0.5112    0.5122
    O8    O  1      0.4446    0.4278    0.3521
    O9    O  1      0.4732    0.4732    0.4732
   O10    O  1      0.9675    0.5325    0.4675
   O5A    O  1      0.4820    0.4450    0.0797
   O6A    O  1      0.5570    0.4880    0.0920
   O7A    O  1      0.5150    0.4713    0.3602
   Zn1    Zn 1      0.4269    0.4269    0.4269
   Zn2    Zn 1      0.5242    0.4272    0.5026
   Zn3    Zn 1      0.9259    0.5741    0.4259
   Zn4    Zn 1      0.9265    0.4958    0.5231
