data_ja5b11150_si_003_cleaned
_cell_length_a                  25.3688(7)
_cell_length_b                  25.3688(7)
_cell_length_c                  25.3688(7)
_cell_angle_alpha               90.0000(0)
_cell_angle_beta                90.0000(0)
_cell_angle_gamma               90.0000(0)

_symmetry_space_group_name_H-M     'P 21 3'
_symmetry_Int_Tables_number         198
_symmetry_cell_setting             cubic
loop_
_symmetry_equiv_pos_as_xyz
'+x,+y,+z'
'1/2-x,-y,1/2+z'
'-x,1/2+y,1/2-z'
'1/2+x,1/2-y,-z'
'+z,+x,+y'
'1/2+z,1/2-x,-y'
'-z,1/2+x,1/2-y'
'1/2-z,-x,1/2+y'
'+y,+z,+x'
'-y,1/2+z,1/2-x'
'1/2+y,1/2-z,-x'
'1/2-y,-z,1/2+x'

loop_
_atom_site_label
_atom_site_type_symbol
_atom_site_occupancy
_atom_site_fract_x
_atom_site_fract_y
_atom_site_fract_z
     C    C  1.0000      0.2541    0.5042    1.0139
     C    C  1.0000      0.2302    0.5270    0.9699
     C    C  1.0000      0.1711    0.5338    0.9713
     C    C  1.0000      0.5480    0.4289    0.7406
     C    C  1.0000      0.5301    0.4692    0.8329
     C    C  1.0000      0.5185    0.4652    0.7760
     C    C  1.0000      0.4788    0.4931    0.7516
     C    C  1.0000      0.4665    0.4907    0.6989
     C    C  1.0000      0.4968    0.4567    0.6664
     C    C  1.0000      0.4878    0.4503    0.6082
     C    C  1.0000      0.3386    0.5162    0.9666
     C    C  1.0000      0.3091    0.4995    1.0100
     C    C  1.0000      0.5395    0.4267    0.6858
     C    C  1.0000      0.3973    0.5108    0.9634
     C    C  1.0000      0.2621    0.5536    0.9363
     C    C  1.0000      0.3157    0.5446    0.9404
     H    H  1.0000      0.5612    0.4062    0.6632
     H    H  1.0000      0.2348    0.4928    1.0439
     H    H  1.0000      0.4386    0.5113    0.6847
     H    H  1.0000      0.2489    0.5863    0.9239
     H    H  1.0000      0.3275    0.4840    1.0387
     H    H  1.0000      0.3397    0.5726    0.9338
     H    H  1.0000      0.4582    0.5159    0.7730
     H    H  1.0000      0.5737    0.4062    0.7557
     O    O  1.0000      0.5311    0.4689    0.9689
     O    O  1.0000      0.1494    0.5627    0.9320
     O    O  1.0000      0.4222    0.5368    0.9304
     O    O  1.0000      0.4175    0.4809    1.0008
     O    O  1.0000      0.1483    0.5110    1.0100
     O    O  1.0000      0.4693    0.4693    0.4693
     O    O  1.0000      0.5584    0.4343    0.8516
     O    O  1.0000      0.5118    0.5097    0.8549
     O    O  1.0000      0.5167    0.4222    0.5793
     O    O  1.0000      0.4478    0.4755    0.5901
    Zn    Zn 1.0000      0.0744    0.5744    0.9256
    Zn    Zn 1.0000      0.4766    0.4256    1.0015
    Zn    Zn 1.0000      0.5746    0.4254    0.9254
    Zn    Zn 1.0000      0.5229    0.4261    0.5028
