data_MOF5_closedpore
_symmetry_space_group_name_H-M 'P 21 3'
_space_group_IT_number         198
_cell_length_a                 20.18492733
_cell_length_b                 20.18492733
_cell_length_c                 20.18492733
_cell_angle_alpha              90.000000
_cell_angle_beta               90.000000
_cell_angle_gamma              90.000000
loop_
_atom_site_type_symbol
_atom_site_fract_x
_atom_site_fract_y
_atom_site_fract_z
Zn  -1.911697939144E-01 -3.088302060856E-01  3.088302060856E-01
Zn   3.089248177255E-01  3.089248177255E-01  3.089248177255E-01
Zn  -1.822162377657E-01 -3.901394376778E-01  4.435129996216E-01
Zn   4.435914937112E-01  3.178312674041E-01  3.901954114986E-01
H  -4.645650593176E-01  4.687627332749E-01  7.517307331452E-02
H  -4.247761414906E-01  4.646429497709E-01  4.687304623302E-01
H   4.979405521387E-01  2.615917552740E-01  5.728820646707E-02
H   4.387377352413E-01  4.790053037839E-01  1.525958125847E-01
H   4.020407456102E-01  2.720090407224E-01  1.357374430906E-01
H  -4.427645999558E-01 -4.978755784147E-01  2.615655213210E-01
H  -3.643067944686E-01 -4.019740367160E-01  2.719347127078E-01
H  -3.474705986311E-01 -4.385705008286E-01  4.789553164530E-01
C  -4.943324406293E-01  4.260100025380E-01  8.885264814392E-02
C  -3.520398542826E-01 -4.159967115664E-01  3.758457526657E-01
C   4.838961471965E-01  3.089670743586E-01  7.848918141220E-02
C  -4.215233773330E-01 -4.838389917477E-01  3.089241264951E-01
C  -4.111243189657E-01  4.944114075078E-01  4.259687068734E-01
C   4.161029387378E-01  3.759120518194E-01  1.480002984122E-01
C  -3.691631336724E-01 -4.522089389278E-01  4.317040189453E-01
C   3.662569079156E-01  3.799230208699E-01  2.013729119679E-01
C  -4.363239650991E-01  4.782391042344E-01  3.641218061332E-01
C  -4.781884230394E-01  3.641570126596E-01  6.364665536226E-02
C  -4.203423839481E-01  3.556311306236E-01  2.021228630999E-02
C  -4.797246093291E-01  4.203654799349E-01  3.556145447901E-01
C  -2.986879579699E-01 -3.661292057695E-01  3.798436649726E-01
C   4.523292055500E-01  4.317579270939E-01  1.308662183485E-01
C   4.313190517382E-01  3.146774592027E-01  1.211889784109E-01
C  -3.788399894639E-01 -4.312454403751E-01  3.146137218323E-01
O   3.643171555294E-01  3.643171555294E-01  3.643171555294E-01
O   4.845380827681E-01  4.164716692224E-01  3.043037344282E-01
O  -1.357774721373E-01 -3.642225278627E-01  3.642225278627E-01
O  -4.164503621233E-01  3.042966369183E-01 -1.549230499431E-02
O  -2.707376644068E-01 -3.567140445387E-01  4.354721931643E-01
O  -2.809487262548E-01 -3.381111546348E-01  3.270139570278E-01
O   3.382585765718E-01  3.270956416356E-01  2.191520803706E-01
O  -3.763564778703E-01  4.004869615887E-01  1.881192913239E-02
O   3.568313114922E-01  4.355659044772E-01  2.292887589946E-01
O  -4.810688111589E-01  3.763661845963E-01  4.004594137582E-01
