data_SALEM-2
_cell_length_a                  17.0141(0)
_cell_length_b                  17.0141(0)
_cell_length_c                  17.0141(0)
_cell_angle_alpha               90.0000(0)
_cell_angle_beta                90.0000(0)
_cell_angle_gamma               90.0000(0)

_symmetry_space_group_name_H-M     'I -4 3 m'
_symmetry_Int_Tables_number         217
_symmetry_cell_setting             cubic
loop_
_symmetry_equiv_pos_as_xyz
'+x,+y,+z'
'1/2+x,1/2+y,1/2+z'
'+z,+x,+y'
'1/2+z,1/2+x,1/2+y'
'+y,+z,+x'
'1/2+y,1/2+z,1/2+x'
'-y,+x,-z'
'1/2-y,1/2+x,1/2-z'
'-x,+z,-y'
'1/2-x,1/2+z,1/2-y'
'-z,+y,-x'
'1/2-z,1/2+y,1/2-x'
'+x,-y,-z'
'1/2+x,1/2-y,1/2-z'
'+z,-x,-y'
'1/2+z,1/2-x,1/2-y'
'+y,-z,-x'
'1/2+y,1/2-z,1/2-x'
'-y,-x,+z'
'1/2-y,1/2-x,1/2+z'
'-x,-z,+y'
'1/2-x,1/2-z,1/2+y'
'-z,-y,+x'
'1/2-z,1/2-y,1/2+x'
'-x,+y,-z'
'1/2-x,1/2+y,1/2-z'
'-z,+x,-y'
'1/2-z,1/2+x,1/2-y'
'-y,+z,-x'
'1/2-y,1/2+z,1/2-x'
'+y,+x,+z'
'1/2+y,1/2+x,1/2+z'
'+x,+z,+y'
'1/2+x,1/2+z,1/2+y'
'+z,+y,+x'
'1/2+z,1/2+y,1/2+x'
'-x,-y,+z'
'1/2-x,1/2-y,1/2+z'
'-z,-x,+y'
'1/2-z,1/2-x,1/2+y'
'-y,-z,+x'
'1/2-y,1/2-z,1/2+x'
'+y,-x,-z'
'1/2+y,1/2-x,1/2-z'
'+x,-z,-y'
'1/2+x,1/2-z,1/2-y'
'+z,-y,-x'
'1/2+z,1/2-y,1/2-x'

loop_
_atom_site_label
_atom_site_type_symbol
_atom_site_occupancy
_atom_site_fract_x
_atom_site_fract_y
_atom_site_fract_z
    C1    C  1.0000      0.1213    0.4962    0.1213
    C2    C  1.0000      0.1342    0.6018    0.1912
    H1    H  1.0000      0.1211    0.6442    0.2367
    H2    H  1.0000      0.9011    0.9011    0.4411
    N1    N  1.0000      0.0899    0.5344    0.1827
   Zn1    Zn 1.0000      0.5000    0.0000    0.7500

