data_foo_97
_symmetry_space_group_name_H-M 'R 3'
_space_group_IT_number         146
_cell_length_a                 33.00065221
_cell_length_b                 33.00065221
_cell_length_c                 40.26265251
_cell_angle_alpha              90.000000
_cell_angle_beta               90.000000
_cell_angle_gamma              120.000000
loop_
_atom_site_type_symbol
_atom_site_fract_x
_atom_site_fract_y
_atom_site_fract_z
C -3.958439632633E-02 5.787810662565E-03 2.187444914554E-01
C -1.438455641756E-01 1.762530874949E-01 -4.395140336494E-02
C 2.919862897948E-01 1.187877159248E-01 -1.002868812436E-01
C -1.086540534724E-01 -3.013360985741E-01 -7.910687480155E-02
C 3.932108929167E-02 -6.345064649247E-03 -2.214464106169E-01
C 1.447966499953E-01 -1.749674212973E-01 4.335437961536E-02
C -2.935006802714E-01 -1.194636255160E-01 1.002547106898E-01
C 1.078974096575E-01 3.004069767347E-01 7.937269609806E-02
C -4.065539508158E-02 4.277126946385E-02 2.019770598756E-01
C -1.530214625968E-01 1.534497450238E-01 -1.297337839847E-02
C 2.674637521010E-01 7.023048625276E-02 -9.414741872263E-02
C -7.400341909585E-02 -2.681113481911E-01 -1.004318557871E-01
C 3.932330518291E-02 -4.388637654724E-02 -2.046693906742E-01
C 1.547643905947E-01 -1.506308945304E-01 1.292976710068E-02
C -2.700545951646E-01 -7.090744626794E-02 9.407584068856E-02
C 7.415031812423E-02 2.666364119153E-01 1.009199625629E-01
C -7.919679107516E-02 4.907372096094E-02 2.052890368984E-01
C -1.471075638317E-01 1.785633569023E-01 1.618945363392E-02
C 2.584793919298E-01 3.885875836275E-02 -1.200601205881E-01
C -3.244517991852E-02 -2.684912125798E-01 -1.056274929280E-01
C 7.773111896508E-02 -5.055463946590E-02 -2.071140987841E-01
C 1.492462563207E-01 -1.742376762334E-01 -1.693180191276E-02
C -2.609625113783E-01 -3.959890200280E-02 1.200723215479E-01
C 3.183255669670E-02 2.653945972907E-01 1.064427071237E-01
C -1.177504108457E-01 1.838516278245E-02 2.247633669945E-01
C -1.320854646391E-01 2.265591720205E-01 1.508980262728E-02
C 2.739053495994E-01 5.511577208832E-02 -1.524110619228E-01
C -2.402606320729E-02 -3.013068809011E-01 -8.952217806234E-02
C 1.173348902518E-01 -1.958819028478E-02 -2.255907752874E-01
C 1.337449499892E-01 -2.223668063684E-01 -1.722129793203E-02
C -2.750851861637E-01 -5.579886547003E-02 1.526260789114E-01
C 2.170659491648E-02 2.970762836818E-01 9.040472020095E-02
C -1.165792519122E-01 -1.859549680764E-02 2.411531219746E-01
C -1.229276775907E-01 2.490644325165E-01 -1.586815698619E-02
C 2.986912004034E-01 1.035766661279E-01 -1.582832083184E-01
C -5.868144894633E-02 -3.342473334928E-01 -6.834078372465E-02
C 1.173612067585E-01 1.804771613286E-02 -2.419306637726E-01
C 1.235215561769E-01 -2.464863404727E-01 1.315785718326E-02
C -2.989055439915E-01 -1.042390823861E-01 1.585735050920E-01
C 5.534016530786E-02 3.304323423016E-01 6.884558551432E-02
C -7.806667509051E-02 -2.483742339329E-02 2.385173407013E-01
C -1.285773401738E-01 2.244253776307E-01 -4.514538828968E-02
C 3.076425946779E-01 1.352515262358E-01 -1.326859304402E-01
C -1.005201198168E-01 -3.346866211861E-01 -6.322100509350E-02
C 7.888270454922E-02 2.450736024817E-02 -2.402804384644E-01
C 1.288542336303E-01 -2.233353574446E-01 4.312075249848E-02
C -3.081191802525E-01 -1.358484329051E-01 1.328454227931E-01
C 9.792005058339E-02 3.324929663326E-01 6.345890279435E-02
C -1.600172563482E-01 2.347529883671E-02 2.282265514490E-01
C -1.243383562110E-01 2.544377402096E-01 4.603098263406E-02
C 2.633951234972E-01 2.237394319884E-02 -1.808783564582E-01
C 2.057103926150E-02 -3.018363926082E-01 -9.384870118868E-02
C 1.595009093089E-01 -2.502119923957E-02 -2.280708083836E-01
C 1.265585838626E-01 -2.488552753962E-01 -4.881990118654E-02
C -2.638231172912E-01 -2.286780384095E-02 1.811354443528E-01
C -2.333169474322E-02 2.966011884940E-01 9.534690951021E-02
C 1.439159322144E-01 -1.339218069048E-01 -1.662630081938E-01
C 1.219253980408E-01 -1.783903556385E-01 -1.443541039450E-01
C -1.362215044734E-01 1.601179798528E-01 1.949268129662E-01
C -1.626411661425E-01 1.622908237930E-01 1.277201091682E-01
C -1.864379413412E-01 1.171893260545E-01 1.488380480810E-01
C -1.138357269378E-01 2.057692928038E-01 1.742050868387E-01
C -2.650054530818E-01 -9.570968011197E-02 2.825376009117E-01
C -3.285121723900E-02 3.987468826285E-01 2.178948733481E-02
C 2.884963145989E-01 1.072767627728E-01 -2.700148822040E-01
C 1.637209990421E-02 -4.074801653378E-01 -2.935677688000E-02
C -2.835709493032E-01 -1.354786225607E-01 3.024602691727E-01
C -1.238646741857E-02 4.376992438433E-01 1.062758259010E-03
C 3.084046649474E-01 1.477387927201E-01 -2.892515625551E-01
C -3.971970468195E-03 -4.463871323660E-01 -8.582225418043E-03
C -3.206161216457E-01 -1.447720322891E-01 3.241502780849E-01
C 3.250988298238E-01 1.466746483145E-01 -3.211792943898E-01
H -1.079031950249E-02 6.648082827192E-02 1.864590361198E-01
H -1.646820181215E-01 1.159659843759E-01 -1.223125464238E-02
H 2.553950302925E-01 5.770632385136E-02 -6.884060266284E-02
H -8.015049178277E-02 -2.420026168659E-01 -1.127081800334E-01
H 8.726471619042E-03 -6.777073043614E-02 -1.898150630921E-01
H 1.668241600616E-01 -1.130502429312E-01 1.313246984047E-02
H -2.587140580528E-01 -5.825020831224E-02 6.868749728984E-02
H 8.162204434826E-02 2.414391765693E-01 1.132203103900E-01
H -8.037149238524E-02 7.770687406742E-02 1.923418629838E-01
H -1.534533997816E-01 1.615754946444E-01 4.054919729560E-02
H 2.387138690480E-01 9.695260552421E-04 -1.158206501639E-01
H -5.224302161879E-03 -2.426587571657E-01 -1.220076664933E-01
H 7.797414764076E-02 -7.968295825976E-02 -1.941790857425E-01
H 1.563849086479E-01 -1.557709581128E-01 -4.074652220839E-02
H -2.419298292387E-01 -1.715052828093E-03 1.157277391683E-01
H 5.468214940561E-03 2.392025022571E-01 1.231204136209E-01
H -1.465687563316E-01 -4.189007854117E-02 2.566880029199E-01
H -1.119054371733E-01 2.863921822280E-01 -1.621563240209E-02
H 3.112732487655E-01 1.155921747198E-01 -1.835716100726E-01
H -5.214769993727E-02 -3.602601517388E-01 -5.636985609566E-02
H 1.484262679775E-01 4.175720502241E-02 -2.564204804889E-01
H 1.117154365634E-01 -2.839822815857E-01 1.244983096290E-02
H -3.101292013399E-01 -1.162459446299E-01 1.840773944100E-01
H 4.717848243707E-02 3.552748682653E-01 5.678655727403E-02
H -7.706607063169E-02 -5.322894371437E-02 2.519378539327E-01
H -1.218632631785E-01 2.418570844190E-01 -6.935621158200E-02
H 3.272126454109E-01 1.730677893849E-01 -1.372768525726E-01
H -1.276249161129E-01 -3.610519860816E-01 -4.707442977506E-02
H 7.886590962554E-02 5.341908485492E-02 -2.536790516035E-01
H 1.212990026407E-01 -2.421965840324E-01 6.679183268628E-02
H -3.268316186731E-01 -1.736325452224E-01 1.375896767252E-01
H 1.241921533645E-01 3.592037182992E-01 4.703702017605E-02
H 1.561065275429E-01 -1.014834897239E-01 -1.516832410444E-01
H 8.486529729887E-02 -2.028248649750E-01 -1.504691464700E-01
H 1.196253000405E-01 -1.342329582478E-01 -1.852564230017E-01
H 1.233269487364E-01 -1.705868390734E-01 -1.175460286032E-01
H -2.357317410428E-01 -8.606315558755E-02 2.653369673827E-01
H -3.771528261006E-02 3.645702508149E-01 1.442829460273E-02
H 2.750577447549E-01 1.059263356626E-01 -2.448609636265E-01
H 4.562597087311E-03 -3.817410029743E-01 -3.055741292028E-02
H -2.686503747202E-01 -1.586020662271E-01 3.016170583117E-01
H -7.653595472434E-04 4.348636907636E-01 -2.389292034730E-02
H 3.117291233084E-01 1.801470364941E-01 -2.792274157763E-01
H -3.344647649580E-02 -4.526207057993E-01 7.384622914880E-03
H -1.181416519318E-01 1.397966248979E-01 1.918975682134E-01
H -1.309209376797E-01 1.672025685159E-01 1.148506297974E-01
H -1.689038323620E-01 9.624112311282E-02 1.467142103696E-01
H -8.236112426205E-02 2.117618727951E-01 1.604189065854E-01
H -1.369711908291E-01 1.664101881325E-01 2.218194656931E-01
H -1.859438505341E-01 1.631188149121E-01 1.083761429105E-01
H -2.234132209035E-01 9.380730312880E-02 1.419537423601E-01
H -1.034957349427E-01 2.372903598061E-01 1.894833560591E-01
N 4.770898097357E-20 2.715776452403E-20 2.163545005101E-01
N -1.505744634579E-01 1.510176966255E-01 -7.384547385060E-02
N 4.770898097357E-20 2.715776452403E-20 -2.198044451840E-01
N 1.513078852614E-01 -1.511678538193E-01 7.390644535264E-02
N -1.855511516039E-01 1.292373559368E-01 1.844212580368E-01
N 1.853700167754E-01 -1.294887747465E-01 -1.840672917539E-01
N -2.815674499713E-01 -6.585503300671E-02 2.833507432745E-01
N 2.846636552727E-01 6.708939904535E-02 -2.810979967240E-01
O -1.585024262041E-01 6.031754895975E-02 2.169822872951E-01
O -1.305049000752E-01 2.335432366564E-01 7.381403341252E-02
O 2.376187768943E-01 -2.146688532120E-02 -1.755300953898E-01
O 4.989590219283E-02 -2.749783539219E-01 -1.155059801061E-01
O 1.569740461066E-01 -6.256308351560E-02 -2.173398904355E-01
O 1.325704894603E-01 -2.271997770322E-01 -7.633122382578E-02
O -2.384138427566E-01 2.088867026116E-02 1.754366562581E-01
O -5.222769545374E-02 2.692696272348E-01 1.170781488482E-01
O -1.951487978672E-01 -1.056407678718E-02 2.423903884591E-01
O -1.114041823108E-01 2.975513675372E-01 4.212529167730E-02
O 2.807579693329E-01 4.123864108101E-02 -2.088043583640E-01
O 2.595978410425E-02 -3.297403176164E-01 -7.479627253522E-02
O 1.955764776682E-01 9.478871380077E-03 -2.409547743680E-01
O 1.142352158124E-01 -2.918893331977E-01 -4.580195313641E-02
O -2.800493862664E-01 -4.144239971679E-02 2.093137670640E-01
O -2.942308820797E-02 3.243981431904E-01 7.674085627960E-02
Zn -2.162562727882E-01 6.909012439979E-02 2.132093116019E-01
Zn 2.158350421051E-01 -6.962089976062E-02 -2.131914133593E-01
Zn -2.539138476605E-01 -8.813378983241E-03 2.530701831112E-01
Zn 2.540011394295E-01 8.462943969170E-03 -2.526352112598E-01


