data_foo_44
_symmetry_space_group_name_H-M 'P M 3'
_space_group_IT_number         200
_cell_length_a                 23.43503070
_cell_length_b                 23.43503070
_cell_length_c                 23.43503070
_cell_angle_alpha              90.000000
_cell_angle_beta               90.000000
_cell_angle_gamma              90.000000
loop_
_atom_site_type_symbol
_atom_site_fract_x
_atom_site_fract_y
_atom_site_fract_z
C 2.499656504669E-01 2.073102062569E-01 2.926065720910E-01
C 1.980447406327E-01 1.846693184084E-01 3.129347690238E-01
C 1.982670720008E-01 1.428949917722E-01 3.551101860538E-01
C 2.499552557226E-01 1.224195656680E-01 3.775474395363E-01
C 3.016482182010E-01 1.448374728869E-01 3.570592440450E-01
C 3.018821229636E-01 1.869846583124E-01 3.152563706546E-01
C 2.499541749184E-01 7.763758929216E-02 4.223537614441E-01
H 1.577058988776E-01 2.001525533986E-01 2.949961532660E-01
H 1.582884909865E-01 1.246638733799E-01 3.711574576930E-01
H 3.416220093271E-01 1.287953624347E-01 3.753063118882E-01
H 3.422259437856E-01 2.049050795200E-01 2.997660445521E-01
N 2.499632378223E-01 2.499632378223E-01 2.499632378223E-01
O 2.013325743316E-01 6.001731969384E-02 4.399331594946E-01
O 2.985759828602E-01 6.006124750347E-02 4.399780343169E-01
Zn 1.964434971027E-01 0.000000000000E+00 -5.000000000000E-01
Zn 3.034728876185E-01 0.000000000000E+00 -5.000000000000E-01


