data_foo_226
_symmetry_space_group_name_H-M 'P 1'
_space_group_IT_number         1
_cell_length_a                 23.35797771
_cell_length_b                 23.20353511
_cell_length_c                 23.24553807
_cell_angle_alpha              89.899970
_cell_angle_beta               90.632639
_cell_angle_gamma              89.926780
loop_
_atom_site_type_symbol
_atom_site_fract_x
_atom_site_fract_y
_atom_site_fract_z
C 1.912207519532E-01 2.701170434658E-01 2.182751685529E-01
C 2.221393013701E-01 1.831487739858E-01 2.687204823899E-01
C 2.732924909499E-01 2.157532656073E-01 1.831528634871E-01
C -1.834919483494E-01 2.607130158831E-01 -2.112330924753E-01
C -2.202876434105E-01 -1.885893202267E-01 2.671636309902E-01
C 2.721824928000E-01 -2.290717976589E-01 -1.873669759617E-01
C 1.836267794513E-01 -2.758968136896E-01 -2.190229117010E-01
C -2.154506451551E-01 1.759596909671E-01 -2.648451689991E-01
C -2.737522692014E-01 -2.262721680955E-01 1.836702612730E-01
C -1.868820215168E-01 -2.743414795717E-01 2.170680791006E-01
C 2.182724881729E-01 -1.904064966034E-01 -2.696227038335E-01
C -2.668202939580E-01 2.061066810011E-01 -1.791476936678E-01
C -1.911498758824E-01 -2.690178526155E-01 -2.150408872579E-01
C -2.183959384413E-01 -1.844579612783E-01 -2.717539276649E-01
C -2.738644024176E-01 -2.113425544787E-01 -1.866418426674E-01
C 1.913939683545E-01 -2.700594846032E-01 2.197354082236E-01
C 2.257043679060E-01 2.012213657771E-01 -2.810549406189E-01
C -2.776758564738E-01 2.297876432129E-01 1.903022589113E-01
C -1.883402370693E-01 2.764265035351E-01 2.195128471000E-01
C 2.212392720984E-01 -1.852558898926E-01 2.740730000797E-01
C 2.812128687733E-01 2.362463360093E-01 -1.977309301105E-01
C 1.929483899157E-01 2.852319583289E-01 -2.269682936550E-01
C -2.227086969276E-01 1.930104197074E-01 2.734840621808E-01
C 2.762814125111E-01 -2.161034832612E-01 1.901016274751E-01
C 1.697132889537E-01 2.898172540099E-01 1.648957840460E-01
C 1.677889220717E-01 1.686984634891E-01 2.903218871636E-01
C 2.925671465034E-01 1.609595364438E-01 1.655426585105E-01
C -1.665791314452E-01 2.820304854543E-01 -1.568671214199E-01
C -1.656833603993E-01 -1.720419560224E-01 2.877974617420E-01
C 2.944432982007E-01 -1.760110742377E-01 -1.679073747496E-01
C 1.684834731506E-01 -2.973736208010E-01 -1.644924390129E-01
C -1.617404362464E-01 1.589824836538E-01 -2.862154286038E-01
C -2.973891541532E-01 -1.734799010976E-01 1.647324869456E-01
C -1.660695633106E-01 -2.921012267910E-01 1.632971558235E-01
C 1.640776218385E-01 -1.703232723621E-01 -2.881415212934E-01
C -2.862546972482E-01 1.510228196868E-01 -1.626409284443E-01
C -1.715984805762E-01 -2.859051799243E-01 -1.599341018710E-01
C -1.628905874683E-01 -1.695469998722E-01 -2.898682698814E-01
C -2.941312068300E-01 -1.555464819354E-01 -1.735781918799E-01
C 1.748666017225E-01 -2.900134153064E-01 1.647304417139E-01
C 1.706315072418E-01 1.820367635493E-01 -2.975563423938E-01
C -3.023010806276E-01 1.767703145833E-01 1.737179580251E-01
C -1.720590931471E-01 2.946546751812E-01 1.641391948507E-01
C 1.661294122671E-01 -1.664478244661E-01 2.897358939859E-01
C 3.045919240004E-01 1.823701352312E-01 -1.816238485581E-01
C 1.744853866023E-01 3.004724791952E-01 -1.715018691728E-01
C -1.681856056962E-01 1.721213566597E-01 2.900166802652E-01
C 2.972233645598E-01 -1.609969889916E-01 1.754919695770E-01
C 1.349188858868E-01 3.386065215751E-01 1.625067554985E-01
C 1.632499082638E-01 1.330042269938E-01 3.383084473294E-01
C 3.393594698185E-01 1.563179314711E-01 1.292626959315E-01
C -1.327612623960E-01 3.313533064138E-01 -1.528793994504E-01
C -1.605693983219E-01 -1.353508421271E-01 3.349611043810E-01
C 3.427840922830E-01 -1.749967203977E-01 -1.323905543422E-01
C 1.300273819691E-01 -3.429611992197E-01 -1.601403448299E-01
C -1.586053909251E-01 1.253204083365E-01 -3.357130324284E-01
C -3.452450827359E-01 -1.732176621884E-01 1.285177730172E-01
C -1.293464292077E-01 -3.393121771238E-01 1.599551121780E-01
C 1.595536904097E-01 -1.323703753950E-01 -3.345250371827E-01
C -3.345603291720E-01 1.455939155914E-01 -1.284174545481E-01
C -1.383942038701E-01 -3.355422414553E-01 -1.532870631881E-01
C -1.554900817967E-01 -1.361440946794E-01 -3.391655408744E-01
C -3.416970702682E-01 -1.484728896753E-01 -1.385273847743E-01
C 1.392691553558E-01 -3.379370740062E-01 1.593319932694E-01
C 1.638951907194E-01 1.442854132027E-01 -3.437232633815E-01
C -3.497517064148E-01 1.758852687280E-01 1.368828315196E-01
C -1.339039121420E-01 3.403149487035E-01 1.577852216860E-01
C 1.589462348590E-01 -1.322305922953E-01 3.383749949288E-01
C 3.517500610716E-01 1.797321640640E-01 -1.445204243267E-01
C 1.360969813836E-01 3.458867042726E-01 -1.644613612506E-01
C -1.621917814897E-01 1.357487760452E-01 3.375011799344E-01
C 3.440293483438E-01 -1.556137824554E-01 1.392015923911E-01
C 1.206972095340E-01 3.682389831629E-01 2.129624101716E-01
C 2.123928077627E-01 1.101716070783E-01 3.651725238575E-01
C 3.675556506774E-01 2.057969914657E-01 1.093842500225E-01
C -1.142076051239E-01 3.597611452655E-01 -2.026556338899E-01
C -2.094032624731E-01 -1.135050170370E-01 3.620470458449E-01
C 3.696888767249E-01 -2.264833841983E-01 -1.151848586018E-01
C 1.049555465106E-01 -3.671694777008E-01 -2.096085219446E-01
C -2.086092910455E-01 1.070560062711E-01 -3.642919389862E-01
C -3.702296821669E-01 -2.251254829024E-01 1.100590364739E-01
C -1.125757479161E-01 -3.692274220259E-01 2.098863746517E-01
C 2.086701701281E-01 -1.125054404916E-01 -3.625546610971E-01
C -3.641141719897E-01 1.946870308186E-01 -1.096113656915E-01
C -1.241789916873E-01 -3.693784359157E-01 -2.010880954405E-01
C -2.029141655935E-01 -1.171638541069E-01 -3.717079347953E-01
C -3.702045898548E-01 -1.964455993182E-01 -1.156170325816E-01
C 1.188509976837E-01 -3.664642612550E-01 2.082736709342E-01
C 2.114983130977E-01 1.248207247705E-01 -3.745570118991E-01
C -3.737043280808E-01 2.273740010726E-01 1.156413674296E-01
C -1.106361114371E-01 3.681926769444E-01 2.061874235736E-01
C 2.062308048501E-01 -1.161688142884E-01 3.725312711747E-01
C 3.768496980202E-01 2.302674612050E-01 -1.226433913375E-01
C 1.154674418484E-01 3.769962031059E-01 -2.122253660232E-01
C -2.100858897085E-01 1.191462395801E-01 3.695075623503E-01
C 3.710544975633E-01 -2.045674511353E-01 1.165455195974E-01
C 1.425738600005E-01 3.485230875358E-01 2.659643325972E-01
C 2.663465148245E-01 1.244715406908E-01 3.431960087621E-01
C 3.477481252747E-01 2.602820157552E-01 1.264051392313E-01
C -1.309312670222E-01 3.380445497419E-01 -2.566433052029E-01
C -2.636071361742E-01 -1.298457209891E-01 3.409951070378E-01
C 3.473538371919E-01 -2.792798048518E-01 -1.345418056257E-01
C 1.199888835144E-01 -3.453717880405E-01 -2.637686110000E-01
C -2.619470700153E-01 1.238531842161E-01 -3.425136066767E-01
C -3.464230543896E-01 -2.776082189959E-01 1.287702348666E-01
C -1.335166677839E-01 -3.512005349741E-01 2.633350152317E-01
C 2.625373346713E-01 -1.321745816074E-01 -3.434272067038E-01
C -3.441378774695E-01 2.494720359939E-01 -1.255925390613E-01
C -1.437304572116E-01 -3.521987397873E-01 -2.558910263195E-01
C -2.580970652420E-01 -1.323197306224E-01 -3.535050590922E-01
C -3.498433598023E-01 -2.518805382068E-01 -1.288126570096E-01
C 1.351124508626E-01 -3.461084802981E-01 2.629388828381E-01
C 2.662241578403E-01 1.443090857415E-01 -3.581105826041E-01
C -3.495878962731E-01 2.801190217817E-01 1.329357737867E-01
C -1.263327235878E-01 3.492322640632E-01 2.612480639381E-01
C 2.611006365090E-01 -1.345825694132E-01 3.563630631789E-01
C 3.538153050198E-01 2.838527363471E-01 -1.392402424279E-01
C 1.338713515021E-01 3.614658637089E-01 -2.674126217502E-01
C -2.643523740863E-01 1.396722445996E-01 3.525398063742E-01
C 3.504938890299E-01 -2.593529813364E-01 1.318049495973E-01
C 1.776235215317E-01 3.001621125793E-01 2.688936472279E-01
C 2.715629814112E-01 1.607319820449E-01 2.959272458098E-01
C 3.013284170709E-01 2.654729487182E-01 1.629457900274E-01
C -1.654321116774E-01 2.895199217277E-01 -2.612306071846E-01
C -2.693915175652E-01 -1.670896669614E-01 2.945560653823E-01
C 2.993224797007E-01 -2.807817745636E-01 -1.704005866552E-01
C 1.592240395059E-01 -3.007358093236E-01 -2.687925675181E-01
C -2.656725184656E-01 1.581407877133E-01 -2.937624852596E-01
C -2.989298762346E-01 -2.784044104186E-01 1.653141222854E-01
C -1.703589414018E-01 -3.043497519075E-01 2.672207404689E-01
C 2.676006566540E-01 -1.709706103382E-01 -2.980641658417E-01
C -2.962457344326E-01 2.553990178944E-01 -1.600232079697E-01
C -1.766718782653E-01 -3.026732040148E-01 -2.630993414497E-01
C -2.660708782011E-01 -1.653426783215E-01 -3.042358515062E-01
C -3.025295851734E-01 -2.595080928444E-01 -1.637088758062E-01
C 1.711122115491E-01 -2.987972046552E-01 2.688983781074E-01
C 2.735550791865E-01 1.819775593500E-01 -3.121188097830E-01
C -3.024428996314E-01 2.815419721502E-01 1.699231134030E-01
C -1.648251917936E-01 3.041658220453E-01 2.681515309758E-01
C 2.688573936904E-01 -1.685408283649E-01 3.077645805266E-01
C 3.067679851792E-01 2.870397749172E-01 -1.762742803750E-01
C 1.720820181346E-01 3.161132552742E-01 -2.750177817287E-01
C -2.709074203256E-01 1.761317408106E-01 3.053002720048E-01
C 3.039941620936E-01 -2.653096451480E-01 1.681404622898E-01
C 8.163815186903E-02 4.191278489399E-01 2.119283678457E-01
C 2.090479120875E-01 7.064031528921E-02 4.156452768420E-01
C 4.174051976446E-01 2.017348450437E-01 7.037372952713E-02
C -7.677767571717E-02 4.117181734110E-01 -2.001718915071E-01
C -2.055509288121E-01 -7.310181379348E-02 4.117798150634E-01
C 4.201272945110E-01 -2.259037842365E-01 -7.570426044612E-02
C 6.264440075038E-02 -4.150009915599E-01 -2.061497594592E-01
C -2.070759601619E-01 6.927192587603E-02 -4.161329678535E-01
C -4.205253824767E-01 -2.254143949624E-01 7.046451318311E-02
C -7.224648312934E-02 -4.190423784835E-01 2.077911298798E-01
C 2.056493017804E-01 -7.090506715942E-02 -4.114979636055E-01
C -4.157014802256E-01 1.907230022003E-01 -7.282765668756E-02
C -8.741635145293E-02 -4.219796834171E-01 -1.960326304959E-01
C -1.968532763596E-01 -7.995401770545E-02 -4.238640137019E-01
C -4.205168680709E-01 -1.909681044199E-01 -7.712227737531E-02
C 7.954908878536E-02 -4.170066292022E-01 2.040953461543E-01
C 2.058100985479E-01 8.290450373342E-02 -4.230340418874E-01
C -4.225789603168E-01 2.271346946120E-01 7.411565441180E-02
C -6.967555405375E-02 4.172335224921E-01 2.011107671462E-01
C 2.002830827026E-01 -7.893363883552E-02 4.245474463283E-01
C 4.256102949307E-01 2.281991767873E-01 -8.103846383582E-02
C 7.352833429173E-02 4.252072633716E-01 -2.058754876237E-01
C -2.051097800940E-01 7.927699917087E-02 4.199404752169E-01
C 4.196716359881E-01 -1.999668496415E-01 7.584154744932E-02
C 2.570245632644E-02 -4.476746191896E-01 -3.275953630511E-02
C -3.336022498689E-02 2.683523453272E-02 -4.481954821370E-01
C -4.483009075013E-01 -3.317925517956E-02 2.012429963804E-02
C 3.173333110259E-02 -4.488458276237E-01 3.344935417242E-02
C 3.270583175351E-02 3.096115969391E-02 -4.482963493928E-01
C -4.491836402467E-01 3.352841143753E-02 2.278707960162E-02
C 2.787776339688E-02 4.468235774020E-01 3.521347705020E-02
C 3.447547167959E-02 2.937473830887E-02 4.475561306494E-01
C 4.478639222432E-01 3.377398552252E-02 3.382139356717E-02
C -6.199388348904E-02 4.975559760915E-01 -2.976439893741E-02
C -3.161630670474E-02 -6.036834429736E-02 4.955550008067E-01
C 4.860288439347E-01 -3.280907280572E-02 -6.065574021074E-02
C -5.955886875959E-02 -4.976341908381E-01 3.660812150852E-02
C 3.454491129235E-02 -5.983615111163E-02 -4.989868317914E-01
C 4.891074652526E-01 3.389716702187E-02 -6.105363757156E-02
C 2.905356043928E-02 4.479261542566E-01 -3.123681408946E-02
C -3.167604395975E-02 3.222006520172E-02 4.477417891233E-01
C 4.495024311925E-01 -3.257736119757E-02 3.628450859504E-02
C 2.221775481730E-02 4.549254618171E-01 3.822004377726E-01
C 3.778558527968E-01 9.619102748525E-03 4.540214067091E-01
C -2.181543381351E-02 4.516787641837E-01 -3.749544794434E-01
C -3.781954203168E-01 -2.126016479882E-02 4.516319236360E-01
C -3.714077818101E-03 -4.496751409430E-01 -3.748418817837E-01
C -3.764571598208E-01 9.806118159338E-03 -4.532759644387E-01
C -2.122607805433E-02 -4.547719412053E-01 3.791109798217E-01
C 3.793598635852E-01 -2.009269166581E-02 -4.503281241907E-01
C 1.930003508823E-02 4.531190347340E-01 4.419340007767E-01
C 4.373468194208E-01 8.826803918272E-03 4.516264355120E-01
C -1.920280880980E-02 4.493651512648E-01 -4.346798635122E-01
C -4.377666895058E-01 -2.274333046341E-02 4.506699014685E-01
C -7.717831489705E-04 -4.483437547144E-01 -4.345555007843E-01
C -4.359528708170E-01 9.221560907852E-03 -4.507269399562E-01
C -2.538865268379E-02 -4.531428168954E-01 4.387101717624E-01
C 4.389315929147E-01 -2.178940835010E-02 -4.492262261997E-01
C -4.866416497821E-03 4.999620865618E-01 4.712727041011E-01
C 4.691100993424E-01 -6.925597931527E-03 -4.990860145631E-01
C -8.395216466061E-03 -4.997516296684E-01 -4.655661311592E-01
C -4.678275330630E-01 -7.078906856827E-03 -4.996744872723E-01
H 1.805258135017E-01 2.661668577269E-01 1.256677771038E-01
H 1.293735733844E-01 1.860604559112E-01 2.689566551946E-01
H 2.702999742828E-01 1.223686183293E-01 1.808173957413E-01
H -1.805239542569E-01 2.594848342920E-01 -1.179648719258E-01
H -1.274644688773E-01 -1.885553520734E-01 2.663351877722E-01
H 2.730305047594E-01 -1.358830033067E-01 -1.808836179602E-01
H 1.873656963633E-01 -2.778606102238E-01 -1.257800542792E-01
H -1.226990757974E-01 1.727467976774E-01 -2.635217716818E-01
H -2.774436029807E-01 -1.329846571583E-01 1.785901670101E-01
H -1.792200007125E-01 -2.683638544043E-01 1.244968732682E-01
H 1.256816149666E-01 -1.851107741679E-01 -2.657868924358E-01
H -2.629814829765E-01 1.127696771912E-01 -1.772722485735E-01
H -1.827987318125E-01 -2.595154698069E-01 -1.225975539873E-01
H -1.258190962299E-01 -1.843585896720E-01 -2.644847846705E-01
H -2.718180985576E-01 -1.179475015323E-01 -1.910678421803E-01
H 1.903645077395E-01 -2.674633307497E-01 1.264490596351E-01
H 1.334054187419E-01 1.968774411741E-01 -2.733165415478E-01
H -2.831431652489E-01 1.364826232057E-01 1.894993585950E-01
H -1.900536781473E-01 2.727311568276E-01 1.263091060776E-01
H 1.291805684813E-01 -1.792906386253E-01 2.632302541977E-01
H 2.847405122054E-01 1.428071207537E-01 -1.980791541445E-01
H 1.906468433692E-01 2.761063064473E-01 -1.342392001043E-01
H -1.307126739645E-01 1.849461813408E-01 2.650364886820E-01
H 2.757860936849E-01 -1.226477152325E-01 1.924839335674E-01
H 1.171844895752E-01 3.542065726825E-01 1.214682945638E-01
H 1.212404590854E-01 1.214059691411E-01 3.554384007537E-01
H 3.546414848696E-01 1.140311729904E-01 1.150136725013E-01
H -1.194066294796E-01 3.483531363349E-01 -1.108471083453E-01
H -1.183324506298E-01 -1.222472334197E-01 3.512735791864E-01
H 3.602265604862E-01 -1.341440156991E-01 -1.163658086270E-01
H 1.179381263714E-01 -3.601015625791E-01 -1.179989922821E-01
H -1.170905161717E-01 1.116936199350E-01 -3.526207491359E-01
H -3.637801309617E-01 -1.325735144356E-01 1.129382873568E-01
H -1.123045996271E-01 -3.535379094017E-01 1.185686816510E-01
H 1.176053512059E-01 -1.166651915316E-01 -3.493485400276E-01
H -3.499542854234E-01 1.030050771927E-01 -1.151813601197E-01
H -1.222882116025E-01 -3.486584463582E-01 -1.107393402418E-01
H -1.125389868657E-01 -1.235342676968E-01 -3.529907658432E-01
H -3.571758410028E-01 -1.052099719937E-01 -1.277435413107E-01
H 1.259672245168E-01 -3.537479312219E-01 1.168115971222E-01
H 1.213667368120E-01 1.283932874395E-01 -3.562886483384E-01
H -3.685955924046E-01 1.349314319149E-01 1.228178894557E-01
H -1.210056624649E-01 3.548591651994E-01 1.149320498277E-01
H 1.163540775193E-01 -1.168578541034E-01 3.505537127338E-01
H 3.695542745350E-01 1.380710579155E-01 -1.308968713425E-01
H 1.207825818184E-01 3.577899182339E-01 -1.216638913759E-01
H -1.200612791130E-01 1.188864261671E-01 3.503649724643E-01
H 3.599846803016E-01 -1.129452720643E-01 1.268947146871E-01
H 1.318854833276E-01 3.729045323588E-01 3.047330474698E-01
H 3.043958006150E-01 1.071680946100E-01 3.651944260224E-01
H 3.704464557598E-01 2.984159493401E-01 1.107082465172E-01
H -1.169294944389E-01 3.612288062177E-01 -2.950996118730E-01
H -3.014204293949E-01 -1.133221767003E-01 3.630915660226E-01
H 3.690831971153E-01 -3.190318378514E-01 -1.209919884035E-01
H 1.007239575126E-01 -3.653462314676E-01 -3.020223469576E-01
H -3.005993872393E-01 1.100716506459E-01 -3.657942852001E-01
H -3.666832260276E-01 -3.176896350168E-01 1.142493346997E-01
H -1.208572908276E-01 -3.758603747120E-01 3.016660411415E-01
H 3.004989510262E-01 -1.170533304387E-01 -3.662347196200E-01
H -3.679728267341E-01 2.872557275570E-01 -1.107998721494E-01
H -1.326190969383E-01 -3.794485672294E-01 -2.925889810684E-01
H -2.945972483465E-01 -1.176723394946E-01 -3.797596085883E-01
H -3.727620735853E-01 -2.889746232783E-01 -1.111374145774E-01
H 1.190629813835E-01 -3.691867861011E-01 3.006310453272E-01
H 3.028726933940E-01 1.292155517326E-01 -3.830271503850E-01
H -3.691048978119E-01 3.199871721671E-01 1.166048566169E-01
H -1.079726519579E-01 3.717860409977E-01 2.984889325805E-01
H 2.974410418293E-01 -1.219038264310E-01 3.837501666297E-01
H 3.740899423296E-01 3.229771334741E-01 -1.223061342691E-01
H 1.176567866128E-01 3.866527142581E-01 -3.040731350973E-01
H -3.012450506599E-01 1.265875327175E-01 3.782002171298E-01
H 3.723873353304E-01 -2.972424524801E-01 1.144603612195E-01
H 1.951918377568E-01 2.850952341328E-01 3.101950949289E-01
H 3.138652487715E-01 1.726698893202E-01 2.798114040695E-01
H 2.866011444951E-01 3.080391480880E-01 1.768992197853E-01
H -1.793264517270E-01 2.736104401583E-01 -3.035001293113E-01
H -3.118837433075E-01 -1.805644545439E-01 2.793362923088E-01
H 2.822989962946E-01 -3.219892498676E-01 -1.859372552109E-01
H 1.716883501951E-01 -2.846851544692E-01 -3.112289797728E-01
H -3.074034889572E-01 1.720890754777E-01 -2.777164872237E-01
H -2.808632108784E-01 -3.194088919698E-01 1.804489262004E-01
H -1.873282389843E-01 -2.906416082341E-01 3.088189548683E-01
H 3.097104037631E-01 -1.871665005097E-01 -2.843500999476E-01
H -2.814544427850E-01 2.982116827355E-01 -1.731757116160E-01
H -1.922283941702E-01 -2.896746529570E-01 -3.058795554542E-01
H -3.092445833881E-01 -1.773760375262E-01 -2.905840368216E-01
H -2.874074501708E-01 -3.029609018331E-01 -1.740777073210E-01
H 1.843608165554E-01 -2.836686107092E-01 3.116643802938E-01
H 3.163535600659E-01 1.973461583735E-01 -2.998623144952E-01
H -2.839766847162E-01 3.228364382393E-01 1.834124175204E-01
H -1.777195684720E-01 2.902474088522E-01 3.111991579831E-01
H 3.116809747251E-01 -1.834095263303E-01 2.957668123562E-01
H 2.891162913415E-01 3.289771320666E-01 -1.891630077884E-01
H 1.867629279386E-01 3.043048011905E-01 -3.180806605722E-01
H -3.133061698096E-01 1.926244680187E-01 2.928653490271E-01
H 2.885117952054E-01 -3.082385567456E-01 1.800472971041E-01
H 6.735420530258E-02 -4.447611709681E-01 -5.461381487312E-02
H -5.436231791842E-02 6.936062485889E-02 -4.447613456685E-01
H -4.402532170879E-01 -5.290908084795E-02 6.278566116662E-02
H 1.361319688756E-02 -4.101143504256E-01 5.402127341051E-02
H 5.272103258208E-02 1.122146159195E-02 -4.097303694259E-01
H -4.145794136326E-01 5.348261295251E-02 -2.404197294976E-03
H -6.414871642080E-04 -4.112709287420E-01 -4.868965982554E-02
H -4.971854042855E-02 9.336434322867E-05 -4.125855483090E-01
H -4.156395611930E-01 -5.019241575215E-02 -9.421000705419E-03
H 7.670847622925E-02 -4.520146676988E-01 4.826809778440E-02
H 4.822592792562E-02 7.585940994224E-02 -4.502346768653E-01
H -4.453894669324E-01 4.977431002865E-02 6.734665114899E-02
H 4.144779955161E-02 4.204009810210E-01 3.565273190949E-01
H 3.504350355078E-01 2.249571699648E-02 4.174955753304E-01
H -3.053930020063E-02 4.137629273232E-01 -3.481034025515E-01
H -3.520399063324E-01 -3.343438914182E-02 4.145852829878E-01
H 3.341969800086E-03 -4.114918230383E-01 -3.478455773071E-01
H -3.489761647400E-01 2.322870985451E-02 -4.170745368442E-01
H -3.731293767662E-02 -4.202284925485E-01 3.508893340425E-01
H 3.531302089928E-01 -3.169776326502E-02 -4.131282503932E-01
H 3.696207388964E-02 4.161624574085E-01 4.656315587632E-01
H 4.589470665110E-01 2.190929824600E-02 4.120723020509E-01
H -2.660486491774E-02 4.085159338411E-01 -4.571604985452E-01
H -4.606717061249E-01 -3.702327474033E-02 4.118417897096E-01
H 8.979132937517E-03 -4.079002535988E-01 -4.568055614054E-01
H -4.574613478157E-01 2.292613547035E-02 -4.113618242739E-01
H -4.568013759730E-02 -4.162255275394E-01 4.596733736501E-01
H 4.617378375599E-01 -3.565234634348E-02 -4.101123055877E-01
H 2.564254678849E-03 4.106181989707E-01 5.247444111503E-02
H 5.135536024678E-02 4.335163399705E-03 4.110436348251E-01
H 4.078870297866E-01 5.058605234339E-02 1.426716273340E-02
H -8.177770509185E-02 4.570077001725E-01 -4.491467611016E-02
H -4.703319350971E-02 -7.924678837742E-02 4.546147031978E-01
H 4.438286699733E-01 -4.897244250070E-02 -7.531116510456E-02
H -8.217915086665E-02 4.668895137780E-01 5.846773573755E-02
H 5.578415727144E-02 -8.230211988382E-02 4.651834910546E-01
H 4.499610077295E-01 5.378167174271E-02 -7.950442758192E-02
H 9.208715453207E-03 4.093518302902E-01 -5.080253104366E-02
H -5.125306555511E-02 1.354097729330E-02 4.085298223429E-01
H 4.089284219924E-01 -5.250564308666E-02 2.188176663697E-02
H 7.110766251126E-02 4.436385601403E-01 5.474443003200E-02
H 5.453211363818E-02 7.241398082677E-02 4.455609711749E-01
H 4.514260737879E-01 5.382090743536E-02 7.670512201620E-02
H -8.588367595376E-02 -4.666664618098E-01 -5.038220486474E-02
H -5.238572267206E-02 -8.442728219559E-02 -4.693233777701E-01
H -4.811348781113E-01 -5.308716678388E-02 -8.786079932669E-02
H -7.790207866149E-02 -4.568855563099E-01 5.269692105200E-02
H 5.043242103861E-02 -7.979151160707E-02 -4.586481273602E-01
H -4.741887722539E-01 5.068637496868E-02 -8.548988642970E-02
H 7.288141435863E-02 4.507763334182E-01 -4.834961683845E-02
H -4.812855241399E-02 7.671478646696E-02 4.511041588954E-01
H 4.579899842430E-01 -4.935135738677E-02 7.999950646092E-02
N -2.191317965106E-01 2.116631970388E-01 -2.157146911854E-01
N -2.254052454053E-01 -2.273125113646E-01 2.206356523794E-01
N 2.233626950087E-01 -2.302986038779E-01 -2.238234022278E-01
N -2.258724255542E-01 -2.192189564162E-01 -2.222503757829E-01
N 2.282634547355E-01 -2.220135821961E-01 2.260075631418E-01
N 2.327081096310E-01 2.396691755810E-01 -2.343575687696E-01
N -2.285944732559E-01 2.313804855272E-01 2.263440158348E-01
N 1.029086114253E-03 -4.995284641267E-01 5.689557136198E-02
N 5.571691550604E-02 5.764243213727E-04 -4.992326241115E-01
N 4.958315719704E-01 5.573916670962E-02 -1.284776038765E-03
N -2.980165766178E-03 4.989013300936E-01 -5.304247366174E-02
N -5.405082327153E-02 -4.058534937593E-04 4.976580191927E-01
N 4.954931721457E-01 -5.484607250148E-02 -1.205854261221E-03
N 2.205359043943E-03 -4.998823979756E-01 3.517437518976E-01
N 3.497077300879E-01 -4.483997539219E-03 -4.977856434471E-01
N -1.408922532105E-02 -4.987784315724E-01 -3.460188499843E-01
N -3.484144767111E-01 -5.077943362815E-03 4.987299161304E-01
N 2.268986433235E-01 2.208143691493E-01 2.212124822873E-01
O 6.376857290079E-02 4.374602750378E-01 1.631801963342E-01
O 1.610159912434E-01 6.371532388935E-02 4.401322438537E-01
O 4.349615467394E-01 1.516517376198E-01 5.599480619703E-02
O -6.776389585862E-02 4.360122831758E-01 -1.517475058168E-01
O -1.567905678169E-01 -6.392356541075E-02 4.352154825327E-01
O 4.391004168185E-01 -1.769353006117E-01 -5.891693916072E-02
O 5.648566019447E-02 -4.407166939766E-01 -1.581625204487E-01
O -1.593172553844E-01 6.015085199327E-02 -4.404838541956E-01
O -4.415973730552E-01 -1.768859303982E-01 5.478628415866E-02
O -5.525834783152E-02 -4.361453162197E-01 1.587257177559E-01
O 1.572398876618E-01 -6.077841204724E-02 -4.353864252335E-01
O -4.341995540477E-01 1.410240248751E-01 -5.788131302921E-02
O -6.461991366386E-02 -4.341163959574E-01 -1.472645590196E-01
O -1.472614902530E-01 -6.096621416071E-02 -4.367216641082E-01
O -4.382184622703E-01 -1.409144236628E-01 -6.240276932378E-02
O 6.649724266917E-02 -4.366824320720E-01 1.545033977922E-01
O 1.563022330982E-01 6.235558811161E-02 -4.345292803394E-01
O -4.433493127688E-01 1.786325367031E-01 5.831275482089E-02
O -5.734494550124E-02 4.363273248263E-01 1.512641858686E-01
O 1.511794678074E-01 -5.752906784613E-02 4.356804622828E-01
O 4.437024991865E-01 1.788657879968E-01 -6.401128595510E-02
O 5.343079885934E-02 4.348912997246E-01 -1.560004653011E-01
O -1.558507870275E-01 5.858185213014E-02 4.325945062523E-01
O 4.370855263432E-01 -1.499061021690E-01 6.127536621261E-02
O 6.863661500786E-02 4.399627214145E-01 2.607705074984E-01
O 2.559840583499E-01 4.609388603501E-02 4.302265415842E-01
O 4.389623270162E-01 2.492065552946E-01 5.373302390995E-02
O -5.603437195986E-02 4.277132333394E-01 -2.481792228834E-01
O -2.528056946632E-01 -5.025386508619E-02 4.268225906530E-01
O 4.406073519381E-01 -2.749578707074E-01 -6.054550478161E-02
O 3.531948149601E-02 -4.264234202932E-01 -2.525789787518E-01
O -2.552408944212E-01 4.827040338185E-02 -4.318243374098E-01
O -4.390884016651E-01 -2.748524953057E-01 5.426300983492E-02
O -5.754437716903E-02 -4.404784324595E-01 2.562151029700E-01
O 2.532635515790E-01 -4.824104091831E-02 -4.255276801405E-01
O -4.381130660316E-01 2.384496821334E-01 -5.828386927130E-02
O -8.083551134106E-02 -4.506878347399E-01 -2.421282835256E-01
O -2.429603943530E-01 -6.911733553456E-02 -4.515523261708E-01
O -4.427126125959E-01 -2.382363400918E-01 -6.064551954035E-02
O 6.150590228134E-02 -4.362878610660E-01 2.519441072139E-01
O 2.519308916756E-01 7.033145979225E-02 -4.489409129903E-01
O -4.401349313797E-01 2.765094568091E-01 5.614484971928E-02
O -4.977332389709E-02 4.363774063927E-01 2.485705448198E-01
O 2.458466225594E-01 -7.071889764223E-02 4.539182436758E-01
O 4.456246328968E-01 2.768712931870E-01 -6.419318148373E-02
O 6.058023267014E-02 4.526792161010E-01 -2.516843924632E-01
O -2.514358968262E-01 6.853063256065E-02 4.462348165733E-01
O 4.401726763003E-01 -2.474251784360E-01 5.765461453957E-02
ZN -6.234634055923E-03 4.988429225415E-01 -1.418408819610E-01
ZN -1.431898735946E-01 -1.471195309586E-03 4.968691136791E-01
ZN 4.978218114681E-01 -1.447736907875E-01 -1.610320324198E-03
ZN 5.864850700639E-03 4.999852125684E-01 2.645213115754E-01
ZN 2.626380922068E-01 -7.577315069408E-04 -4.971230010465E-01
ZN -4.987085114258E-01 2.611869050064E-01 -2.623913071752E-03
ZN -1.144315718678E-02 -4.992273985418E-01 -2.588915287430E-01
ZN -2.613188306289E-01 -9.564280086984E-04 4.972198529380E-01
ZN 4.994756669949E-01 -2.597578720869E-01 -1.770560656077E-03
ZN 4.336247700461E-03 -4.995591621898E-01 1.459187802849E-01
ZN 1.447623843346E-01 1.467584136166E-03 -4.979363291554E-01
ZN 4.987730241628E-01 1.460362290055E-01 -2.122629161261E-03


