data_foo_54
_symmetry_space_group_name_H-M 'P M 3'
_space_group_IT_number         200
_cell_length_a                 23.28599558
_cell_length_b                 23.28599558
_cell_length_c                 23.28599558
_cell_angle_alpha              90.000000
_cell_angle_beta               90.000000
_cell_angle_gamma              90.000000
loop_
_atom_site_type_symbol
_atom_site_fract_x
_atom_site_fract_y
_atom_site_fract_z
C 2.150645897634E-01 1.840801919711E-01 2.688901771312E-01
C 1.604879097274E-01 1.676026153267E-01 2.894698484778E-01
C 1.556916707489E-01 1.330426445904E-01 3.381601412470E-01
C 2.049838042112E-01 1.137987263339E-01 3.671076337578E-01
C 2.592266963699E-01 1.299692308889E-01 3.461353002180E-01
C 2.645199056495E-01 1.647703276851E-01 2.979378462278E-01
C 2.018095814942E-01 7.555000554092E-02 4.183593203622E-01
C 4.682767929596E-01 0.000000000000E+00 -5.000000000000E-01
C 3.772113092125E-01 4.989817472013E-02 -5.000000000000E-01
C 4.368412539070E-01 5.159893442534E-02 -5.000000000000E-01
H 1.219678191313E-01 1.822799517427E-01 2.666887513055E-01
H 1.135006198413E-01 1.196461921301E-01 3.542461249362E-01
H 2.972634931170E-01 1.146194277685E-01 3.692106436522E-01
H 3.069977849446E-01 1.777337009281E-01 2.823129959033E-01
H 3.506931994428E-01 8.885688256759E-02 -5.000000000000E-01
H 4.580897940110E-01 9.351097439406E-02 -5.000000000000E-01
N 2.203210187218E-01 2.203210187218E-01 2.203210187218E-01
N 3.483178523099E-01 0.000000000000E+00 -5.000000000000E-01
O 1.525373511528E-01 6.011838170605E-02 4.369349577310E-01
O 2.500464044661E-01 6.037118342918E-02 4.396157265071E-01
Zn 1.523808707229E-01 0.000000000000E+00 -5.000000000000E-01
Zn 2.627784526596E-01 0.000000000000E+00 -5.000000000000E-01


