data_foo_156
_symmetry_space_group_name_H-M 'P M M M'
_space_group_IT_number         47
_cell_length_a                 24.65560778
_cell_length_b                 22.42463550
_cell_length_c                 22.92586257
_cell_angle_alpha              90.000000
_cell_angle_beta               90.000000
_cell_angle_gamma              90.000000
loop_
_atom_site_type_symbol
_atom_site_fract_x
_atom_site_fract_y
_atom_site_fract_z
C 2.293666442235E-01 1.945542176919E-01 2.675607907141E-01
C 2.799233731041E-01 2.331602225099E-01 1.835531486274E-01
C 1.941435589543E-01 2.795732228334E-01 2.127188964798E-01
C 1.784034149172E-01 1.731179281516E-01 2.862108367942E-01
C 3.041039297687E-01 1.785675851032E-01 1.673713914616E-01
C 1.772484520635E-01 2.983642252865E-01 1.568882114682E-01
C 1.745396862539E-01 1.363631497787E-01 3.350730843658E-01
C 3.506324061475E-01 1.781274365445E-01 1.329889739406E-01
C 1.386708817674E-01 3.435234470293E-01 1.511762020604E-01
C 2.212713764340E-01 1.192931831773E-01 3.658604755532E-01
C 3.740989956637E-01 2.317838637487E-01 1.137920369716E-01
C 1.159981992260E-01 3.704387871847E-01 2.007897106741E-01
C 2.720050751545E-01 1.399516199870E-01 3.465449835808E-01
C 3.497894268422E-01 2.860798843403E-01 1.297048280174E-01
C 1.330658857358E-01 3.515181230960E-01 2.562859083928E-01
C 2.762816700880E-01 1.774006388509E-01 2.984266663813E-01
C 3.033338178054E-01 2.870225466047E-01 1.641572162871E-01
C 1.717665884729E-01 3.069927478896E-01 2.624861534359E-01
C 2.186946387377E-01 7.877906903063E-02 4.173318224897E-01
C 4.228755211438E-01 2.313905009426E-01 7.573251507353E-02
C 7.413376632471E-02 4.182403505665E-01 1.970444320672E-01
C 4.700489140519E-01 0.000000000000E+00 -5.000000000000E-01
C 0.000000000000E+00 -5.000000000000E-01 4.677837035522E-01
C 3.840834570369E-01 5.182636238133E-02 -5.000000000000E-01
C 4.713148158080E-02 -5.000000000000E-01 3.753059490868E-01
C 4.403895599742E-01 5.359598479755E-02 -5.000000000000E-01
C 4.874000799102E-02 -5.000000000000E-01 4.358683307158E-01
H 1.418831258982E-01 1.859421104872E-01 2.619681586629E-01
H 2.856741329685E-01 1.366521772129E-01 1.820020787959E-01
H 1.945732495713E-01 2.768886505090E-01 1.181579366849E-01
H 1.351346619534E-01 1.194724845690E-01 3.498865441384E-01
H 3.694488236907E-01 1.360026837241E-01 1.195786208620E-01
H 1.248844104278E-01 3.582261613038E-01 1.080247719822E-01
H 3.081199910065E-01 1.261335600953E-01 3.709195243045E-01
H 3.685923366999E-01 3.276301329027E-01 1.146729147363E-01
H 1.151511100414E-01 3.732679166427E-01 2.944989519675E-01
H 3.159522955887E-01 1.941709450582E-01 2.843696977226E-01
H 2.847892827701E-01 3.295138378509E-01 1.768807529155E-01
H 1.852352904354E-01 2.928088172982E-01 3.058934453582E-01
H 3.590182780659E-01 9.226530893935E-02 -5.000000000000E-01
H 8.391651029297E-02 -5.000000000000E-01 3.483505736352E-01
H 4.604670819975E-01 9.711171860474E-02 -5.000000000000E-01
H 8.832719861654E-02 -5.000000000000E-01 4.574463946984E-01
N 2.332383609755E-01 2.337893317431E-01 2.193335087082E-01
N 3.568263665585E-01 0.000000000000E+00 -5.000000000000E-01
N 0.000000000000E+00 -5.000000000000E-01 3.459657359309E-01
O 1.722147461782E-01 6.229849814353E-02 4.360042851585E-01
O 4.418724090653E-01 1.805391642476E-01 6.061024594901E-02
O 5.800703301520E-02 4.357274192325E-01 1.469447177286E-01
O 2.643245081301E-01 6.296112237991E-02 4.386912653324E-01
O 4.419167302621E-01 2.821226402814E-01 6.030297747104E-02
O 5.730224169031E-02 4.381077390703E-01 2.459976271978E-01
Zn 1.720096701296E-01 0.000000000000E+00 -5.000000000000E-01
Zn -5.000000000000E-01 1.755532887547E-01 0.000000000000E+00
Zn 0.000000000000E+00 -5.000000000000E-01 1.468466985192E-01
Zn 2.761399600941E-01 0.000000000000E+00 -5.000000000000E-01
Zn -5.000000000000E-01 2.872563789549E-01 0.000000000000E+00
Zn 0.000000000000E+00 -5.000000000000E-01 2.591309669041E-01


