data_foo_116
_symmetry_space_group_name_H-M 'P M M M'
_space_group_IT_number         47
_cell_length_a                 24.34494669
_cell_length_b                 23.95782641
_cell_length_c                 21.84403323
_cell_angle_alpha              90.000000
_cell_angle_beta               90.000000
_cell_angle_gamma              90.000000
loop_
_atom_site_type_symbol
_atom_site_fract_x
_atom_site_fract_y
_atom_site_fract_z
C 2.277757340222E-01 2.055480346222E-01 2.797008092148E-01
C 2.790816887004E-01 2.488488888107E-01 1.957772453916E-01
C 1.940696387793E-01 2.918524092398E-01 2.333764318257E-01
C 1.757036602449E-01 1.843852022550E-01 2.959713009598E-01
C 3.014343404346E-01 1.984233515574E-01 1.735105743169E-01
C 1.767006710170E-01 3.145079813931E-01 1.770310449001E-01
C 1.710748126884E-01 1.430737005733E-01 3.406484519173E-01
C 3.479872084768E-01 1.991164527583E-01 1.366045266541E-01
C 1.380450815442E-01 3.573268750164E-01 1.759800445463E-01
C 2.181091548389E-01 1.214713847205E-01 3.692779535881E-01
C 3.730547962762E-01 2.498319759196E-01 1.202513542237E-01
C 1.159994982227E-01 3.783846307037E-01 2.307558589846E-01
C 2.698981555249E-01 1.424661982081E-01 3.525839503379E-01
C 3.502375864992E-01 3.000604228130E-01 1.416218707181E-01
C 1.336191028413E-01 3.559290772506E-01 2.868408630245E-01
C 2.749498918004E-01 1.842353226827E-01 3.088426374822E-01
C 3.040066248442E-01 2.998110828366E-01 1.791446358634E-01
C 1.722328756928E-01 3.131971182886E-01 2.883797184164E-01
C 2.150446057863E-01 7.694756001569E-02 4.167778586219E-01
C 4.220486573971E-01 2.501397616227E-01 7.969755731779E-02
C 7.417493087581E-02 4.234912812673E-01 2.299747652482E-01
C -4.696718282837E-01 0.000000000000E+00 -5.000000000000E-01
C 3.826272749504E-01 4.851211638718E-02 -5.000000000000E-01
C 4.396478469604E-01 5.017315088783E-02 -5.000000000000E-01
H 1.389896201835E-01 2.007509472556E-01 2.730905510817E-01
H 2.817423061982E-01 1.587905846965E-01 1.856793328431E-01
H 1.935670993202E-01 2.976653124798E-01 1.343054997456E-01
H 1.308350189348E-01 1.262467282808E-01 3.536281285413E-01
H 3.656112780627E-01 1.602381151366E-01 1.188634915253E-01
H 1.235427070996E-01 3.748964648901E-01 1.325454576864E-01
H 3.061545610621E-01 1.252638479378E-01 3.755561717129E-01
H 3.701315828521E-01 3.393813926218E-01 1.286655567160E-01
H 1.164889008798E-01 3.732475118778E-01 3.291810272661E-01
H 3.154177971341E-01 2.009973963402E-01 2.967372591502E-01
H 2.869386914419E-01 3.390785234314E-01 1.965432175022E-01
H 1.861666306147E-01 2.958602662018E-01 3.321540234615E-01
H -3.572133355537E-01 -8.634739605089E-02 -5.000000000000E-01
H 4.599805287774E-01 9.090477680929E-02 -5.000000000000E-01
N 2.328976581931E-01 2.479905775850E-01 2.349567940384E-01
N -3.550335729822E-01 0.000000000000E+00 -5.000000000000E-01
O 1.679279069282E-01 5.971139675720E-02 4.342321378544E-01
O 4.412122485649E-01 2.026313117325E-01 6.337692795423E-02
O 5.792549080667E-02 4.411009239039E-01 1.776993588191E-01
O 2.612283965303E-01 5.929900008912E-02 4.365817267646E-01
O 4.411467713335E-01 2.977193093477E-01 6.359172083261E-02
O 5.740159052864E-02 4.411758247975E-01 2.820205772135E-01
Zn -1.677383129031E-01 0.000000000000E+00 -5.000000000000E-01
Zn -5.000000000000E-01 1.978990636422E-01 0.000000000000E+00
Zn 0.000000000000E+00 -5.000000000000E-01 1.725531659409E-01
Zn 2.733506427578E-01 0.000000000000E+00 -5.000000000000E-01
Zn -5.000000000000E-01 3.024547272100E-01 0.000000000000E+00
Zn 0.000000000000E+00 -5.000000000000E-01 2.873414762651E-01


