data_foo_26
_symmetry_space_group_name_H-M 'P 1'
_space_group_IT_number         1
_cell_length_a                 23.29265571
_cell_length_b                 23.27959234
_cell_length_c                 23.07158543
_cell_angle_alpha              90.044794
_cell_angle_beta               90.887091
_cell_angle_gamma              91.244072
loop_
_atom_site_type_symbol
_atom_site_fract_x
_atom_site_fract_y
_atom_site_fract_z
C 1.898836790370E-01 2.710905265771E-01 2.128041128136E-01
C 2.207238585870E-01 1.859499690732E-01 2.657287633250E-01
C 2.724590417367E-01 2.174334123755E-01 1.797212450564E-01
C -1.948086185246E-01 2.714461226747E-01 -2.306465655437E-01
C -2.187987919980E-01 -2.012899467508E-01 2.694536402661E-01
C 2.723491265237E-01 -2.291095917917E-01 -1.919949761942E-01
C 1.857349727706E-01 -2.782576231537E-01 -2.302671757850E-01
C -2.249413988445E-01 1.837569109070E-01 -2.809467616080E-01
C -2.731620051515E-01 -2.354471562178E-01 1.843230915748E-01
C -1.840145647357E-01 -2.820340125071E-01 2.132367765491E-01
C 2.194787282203E-01 -1.887014098035E-01 -2.743831081520E-01
C -2.766861947247E-01 2.139067232716E-01 -1.951425350832E-01
C -1.852537284970E-01 -2.646258453803E-01 -2.033524809943E-01
C -2.122984393200E-01 -1.797615391528E-01 -2.589508491032E-01
C -2.671993879057E-01 -2.079604944133E-01 -1.736979579214E-01
C 1.958437706991E-01 -2.759503994707E-01 2.334170821151E-01
C 2.228067500715E-01 2.073165252555E-01 -2.792657506860E-01
C -2.771407878973E-01 2.291868780520E-01 1.943288857426E-01
C -1.912662051610E-01 2.786242824525E-01 2.329794163285E-01
C 2.253901814636E-01 -1.874697662930E-01 2.822088042745E-01
C 2.781074836646E-01 2.421514157654E-01 -1.948484156175E-01
C 1.893958058863E-01 2.897066604354E-01 -2.244502112135E-01
C -2.240315646381E-01 1.884611962340E-01 2.770096715949E-01
C 2.787813062697E-01 -2.198465967394E-01 1.978274990961E-01
C 1.720798187490E-01 2.911508074811E-01 1.578797557397E-01
C 1.662553971922E-01 1.698594125085E-01 2.869762127670E-01
C 2.901215998365E-01 1.625274347690E-01 1.623502242585E-01
C -1.762136304453E-01 2.946402441576E-01 -1.768805057505E-01
C -1.652137051818E-01 -1.768075507581E-01 2.862348178737E-01
C 2.934812738883E-01 -1.760585496279E-01 -1.699164784954E-01
C 1.673986414496E-01 -3.017657854793E-01 -1.772229121844E-01
C -1.704885116794E-01 1.641755640059E-01 -2.964224451475E-01
C -2.971217831694E-01 -1.820659514129E-01 1.699687062236E-01
C -1.689259253677E-01 -3.005485011378E-01 1.573572408289E-01
C 1.647365577765E-01 -1.709856744674E-01 -2.931530804263E-01
C -2.962959183105E-01 1.581107285128E-01 -1.801593964345E-01
C -1.686925787933E-01 -2.847125240906E-01 -1.480166182746E-01
C -1.571689395369E-01 -1.657932301497E-01 -2.799511433161E-01
C -2.850301391533E-01 -1.525586048842E-01 -1.580680821006E-01
C 1.771417352841E-01 -2.993489658945E-01 1.797888049461E-01
C 1.683005428652E-01 1.839490703324E-01 -2.944842997925E-01
C -2.982444204084E-01 1.763965109290E-01 1.715903246075E-01
C -1.720166139932E-01 3.008214905179E-01 1.796978461964E-01
C 1.701374658257E-01 -1.684942362847E-01 2.956742073269E-01
C 3.002372991807E-01 1.881828522304E-01 -1.795393768955E-01
C 1.742688864530E-01 3.080531558889E-01 -1.685277285365E-01
C -1.688552432195E-01 1.727905105989E-01 2.965885977196E-01
C 2.988337389615E-01 -1.643736752071E-01 1.822219571051E-01
C 1.369960722079E-01 3.386969071301E-01 1.536461776892E-01
C 1.619019714323E-01 1.346037656380E-01 3.355558548354E-01
C 3.376063260954E-01 1.571301606346E-01 1.269669835806E-01
C -1.414207883788E-01 3.440186397079E-01 -1.752273937223E-01
C -1.607751489516E-01 -1.418535006770E-01 3.352622509163E-01
C 3.410706710645E-01 -1.743206753449E-01 -1.326624276906E-01
C 1.282262788028E-01 -3.477616197215E-01 -1.770257534214E-01
C -1.651506990451E-01 1.281057587096E-01 -3.441793514183E-01
C -3.460010174780E-01 -1.800176655545E-01 1.346126046194E-01
C -1.313620666539E-01 -3.457813854345E-01 1.509525455774E-01
C 1.596537382134E-01 -1.307632064291E-01 -3.375070863209E-01
C -3.425510785025E-01 1.507092468712E-01 -1.430883144960E-01
C -1.359640928516E-01 -3.339637027920E-01 -1.426713154511E-01
C -1.511579618130E-01 -1.329914973826E-01 -3.301489806930E-01
C -3.341536154417E-01 -1.458946867434E-01 -1.251498143898E-01
C 1.405310445275E-01 -3.474420238430E-01 1.784519087143E-01
C 1.622548324060E-01 1.466468590013E-01 -3.415705949292E-01
C -3.446536163525E-01 1.752854534337E-01 1.327667666270E-01
C -1.335483038188E-01 3.473971319287E-01 1.789052415117E-01
C 1.626802419592E-01 -1.319550616800E-01 3.426951839612E-01
C 3.482072365359E-01 1.849515581469E-01 -1.430290370377E-01
C 1.349552431883E-01 3.517347840758E-01 -1.620280352303E-01
C -1.627936359707E-01 1.321354747594E-01 3.404093109778E-01
C 3.445398931381E-01 -1.577922977832E-01 1.443752623655E-01
C 1.186284683489E-01 3.668083793907E-01 2.036987911275E-01
C 2.113510291599E-01 1.136917736602E-01 3.630916294773E-01
C 3.680786710121E-01 2.060312991501E-01 1.077783162148E-01
C -1.242669191035E-01 3.711425786623E-01 -2.266983625213E-01
C -2.093471837165E-01 -1.305780069131E-01 3.683429142891E-01
C 3.682983868384E-01 -2.251065973101E-01 -1.160629450447E-01
C 1.063042978164E-01 -3.708734242909E-01 -2.292843545257E-01
C -2.136962321494E-01 1.111719499733E-01 -3.772446890095E-01
C -3.718950572575E-01 -2.307745647203E-01 1.127701058010E-01
C -1.078058921102E-01 -3.730672878921E-01 1.997835348854E-01
C 2.087085353216E-01 -1.062548100423E-01 -3.629478058200E-01
C -3.700491430224E-01 1.984106149021E-01 -1.198642525655E-01
C -1.188354930897E-01 -3.640386473775E-01 -1.920570192556E-01
C -1.996176248167E-01 -1.125922985478E-01 -3.599013104128E-01
C -3.663876433918E-01 -1.940336965586E-01 -1.068020316630E-01
C 1.215773207491E-01 -3.729553310276E-01 2.300896113774E-01
C 2.100875252830E-01 1.318702717722E-01 -3.742470647549E-01
C -3.705999996732E-01 2.264054107384E-01 1.150489189779E-01
C -1.132313571416E-01 3.725224164289E-01 2.308555950074E-01
C 2.098885721310E-01 -1.139387538542E-01 3.771484751098E-01
C 3.752305241850E-01 2.350619523566E-01 -1.209915712628E-01
C 1.096832309398E-01 3.778318628249E-01 -2.106817535892E-01
C -2.111854931684E-01 1.051527893462E-01 3.647242490827E-01
C 3.712118144433E-01 -2.058910150004E-01 1.209159233518E-01
C 1.365680153797E-01 3.467387707287E-01 2.583080714606E-01
C 2.654357695014E-01 1.295076865914E-01 3.414106435428E-01
C 3.498305165439E-01 2.606572254950E-01 1.245253735936E-01
C -1.426907024982E-01 3.477844421678E-01 -2.801551441682E-01
C -2.625644852764E-01 -1.553338810337E-01 3.514420091638E-01
C 3.467432765667E-01 -2.779311269399E-01 -1.376083162234E-01
C 1.249209303403E-01 -3.475882052342E-01 -2.820739412965E-01
C -2.678186839275E-01 1.311114502189E-01 -3.616775063012E-01
C -3.481329112789E-01 -2.838883266596E-01 1.274325136028E-01
C -1.222532965496E-01 -3.538296074565E-01 2.553262039555E-01
C 2.631089066878E-01 -1.234628941222E-01 -3.434423431332E-01
C -3.503494892476E-01 2.538571513210E-01 -1.349754761882E-01
C -1.356015845038E-01 -3.438715734282E-01 -2.470598423953E-01
C -2.543692888087E-01 -1.260590124639E-01 -3.383258243479E-01
C -3.479077323718E-01 -2.491373029272E-01 -1.217624209624E-01
C 1.403956731297E-01 -3.496018376073E-01 2.834186059474E-01
C 2.642866494097E-01 1.553659141295E-01 -3.589018636900E-01
C -3.492729476282E-01 2.789293162963E-01 1.375412690309E-01
C -1.326068479791E-01 3.504070875307E-01 2.838946072770E-01
C 2.649540322287E-01 -1.325584755826E-01 3.631267190504E-01
C 3.533301381334E-01 2.887634765685E-01 -1.366452586762E-01
C 1.247382938033E-01 3.592982996963E-01 -2.662862432272E-01
C -2.660030632616E-01 1.201816301678E-01 3.443975145424E-01
C 3.513331940761E-01 -2.610208637165E-01 1.368620546728E-01
C 1.719862378269E-01 2.996479851114E-01 2.630647645017E-01
C 2.704287906987E-01 1.655615400747E-01 2.937232031433E-01
C 3.027292993296E-01 2.665706420484E-01 1.601439866889E-01
C -1.775921861319E-01 2.986091935174E-01 -2.823375307575E-01
C -2.675633996182E-01 -1.902915296867E-01 3.026678760189E-01
C 2.995787472921E-01 -2.801460472546E-01 -1.752973617426E-01
C 1.644519981699E-01 -3.019884674110E-01 -2.827806297787E-01
C -2.737441449658E-01 1.669237501540E-01 -3.139671819001E-01
C -2.994731914578E-01 -2.864607442878E-01 1.629011871776E-01
C -1.598994727023E-01 -3.089634630880E-01 2.622708345757E-01
C 2.687820481478E-01 -1.645591637929E-01 -3.002200178617E-01
C -3.045725740283E-01 2.618179424034E-01 -1.721779743845E-01
C -1.684557011847E-01 -2.950403558420E-01 -2.529001702015E-01
C -2.609670734987E-01 -1.594319133093E-01 -2.888601371515E-01
C -2.991206485604E-01 -2.563000228629E-01 -1.547189097942E-01
C 1.772179762298E-01 -3.018317473842E-01 2.852752037336E-01
C 2.708564600133E-01 1.927261159380E-01 -3.120742132656E-01
C -3.035020619840E-01 2.805034232888E-01 1.769393561306E-01
C -1.713756127195E-01 3.041289181256E-01 2.851617861243E-01
C 2.729771622529E-01 -1.688001820932E-01 3.160779539508E-01
C 3.054830122501E-01 2.925221457959E-01 -1.731371892088E-01
C 1.641441957131E-01 3.159321266392E-01 -2.733531928867E-01
C -2.727050771642E-01 1.616300038608E-01 3.015883420346E-01
C 3.060588397202E-01 -2.681987401321E-01 1.749008614355E-01
C 7.969125806778E-02 4.165171789820E-01 2.003030733908E-01
C 2.080813937177E-01 7.483647604043E-02 4.142723334749E-01
C 4.187480173662E-01 2.016032242118E-01 6.968108711286E-02
C -8.577959136516E-02 4.228591979223E-01 -2.257553239557E-01
C -2.065191610570E-01 -9.161464090487E-02 4.198004397102E-01
C 4.183860288392E-01 -2.242597896796E-01 -7.535963762815E-02
C 6.318637122364E-02 -4.187907040790E-01 -2.293531907420E-01
C -2.093635725708E-01 7.111084080252E-02 -4.275034534064E-01
C -4.228089946234E-01 -2.292618472106E-01 7.334320193630E-02
C -6.793528130687E-02 -4.217569039392E-01 1.947040194561E-01
C 2.048393257510E-01 -6.294694701598E-02 -4.102790115092E-01
C -4.188114386056E-01 1.928130849258E-01 -7.921952866543E-02
C -8.243571074611E-02 -4.158499504078E-01 -1.885706147907E-01
C -1.952489800620E-01 -7.683420613071E-02 -4.134200381800E-01
C -4.190451221189E-01 -1.891370283550E-01 -7.139984059375E-02
C 8.106509746903E-02 -4.231213629599E-01 2.293741379917E-01
C 2.052704466904E-01 9.032882322625E-02 -4.235201601774E-01
C -4.192341277362E-01 2.262800227959E-01 7.253917648987E-02
C -7.062902342944E-02 4.209831393025E-01 2.304017486524E-01
C 2.033134667728E-01 -7.448537765877E-02 4.275716828937E-01
C 4.251228193494E-01 2.323163080375E-01 -8.022106639523E-02
C 6.703594401448E-02 4.240609183449E-01 -2.046125717819E-01
C -2.059983849158E-01 6.149534770182E-02 4.117052353237E-01
C 4.188731493870E-01 -2.002454433767E-01 7.890099697418E-02
C 1.969870576715E-02 -4.466104246863E-01 -3.304775141474E-02
C -3.366380484916E-02 2.398396623059E-02 -4.477457281668E-01
C -4.480721306693E-01 -3.024829261897E-02 2.365288626674E-02
C 2.140221936223E-02 -4.468095548464E-01 3.412505704515E-02
C 3.274067516134E-02 2.599465705851E-02 -4.456291002163E-01
C -4.469654369077E-01 3.617423972001E-02 1.854524724706E-02
C 4.005157068349E-02 4.513506721266E-01 3.215124551331E-02
C 3.331286306064E-02 3.387078176010E-02 4.496289799286E-01
C 4.513895991384E-01 3.419755921003E-02 3.851196317348E-02
C -6.091983509619E-02 4.866678710397E-01 -3.128497535609E-02
C -3.108805493216E-02 -6.275943040112E-02 4.950206213827E-01
C 4.876979422758E-01 -3.390024276456E-02 -5.921293549186E-02
C -5.752930179443E-02 4.844383675730E-01 3.581312301354E-02
C 3.542676666713E-02 -5.950919453606E-02 4.952663286589E-01
C 4.841095963085E-01 3.253310313956E-02 -6.038814477607E-02
C 3.576283784820E-02 4.510117274192E-01 -3.458979852016E-02
C -3.302313259133E-02 2.965865172461E-02 4.473800588431E-01
C 4.490986179165E-01 -3.204628535314E-02 3.736190160488E-02
C 3.778222832151E-01 1.051806326961E-02 4.543604136765E-01
C -3.809167463306E-01 -3.767850726692E-02 4.546934885050E-01
C -3.749668567592E-01 6.574227249929E-03 -4.549366805466E-01
C 3.789252108753E-01 -8.254865571037E-03 -4.465929452688E-01
C 4.371272966263E-01 5.305280115069E-03 4.514960481022E-01
C -4.406206688443E-01 -3.567281509508E-02 4.540534885604E-01
C -4.344309039602E-01 9.726787739124E-03 -4.520261642175E-01
C 4.383092992896E-01 -1.375882943978E-02 -4.457902934758E-01
C 4.685671098684E-01 -6.835328902147E-03 -4.976521312124E-01
C -4.684611868891E-01 -1.127676166435E-02 -4.985383733896E-01
H 1.859843704264E-01 2.687504924357E-01 1.188656052081E-01
H 1.276088596933E-01 1.856425861426E-01 2.650164395845E-01
H 2.661528746936E-01 1.244096011488E-01 1.772749269074E-01
H -1.892540709115E-01 2.732252511831E-01 -1.367122067572E-01
H -1.273867623630E-01 -1.855224425952E-01 2.601733307505E-01
H 2.719252012520E-01 -1.364343034366E-01 -1.824275911660E-01
H 1.839684944358E-01 -2.831055101226E-01 -1.364719290933E-01
H -1.327725379066E-01 1.776276947417E-01 -2.703551668548E-01
H -2.764833867643E-01 -1.424838565384E-01 1.866382776415E-01
H -1.873245497357E-01 -2.791372825279E-01 1.192728946758E-01
H 1.263889699307E-01 -1.895668434806E-01 -2.727891089958E-01
H -2.745161876646E-01 1.208208298761E-01 -1.978553941996E-01
H -1.817113793919E-01 -2.610408131448E-01 -1.094320171999E-01
H -1.192335751489E-01 -1.814047380150E-01 -2.565927267863E-01
H -2.599389850668E-01 -1.149415374367E-01 -1.724497852628E-01
H 1.913596509942E-01 -2.790231785938E-01 1.394663977753E-01
H 1.310375823436E-01 1.953174190040E-01 -2.687055379903E-01
H -2.775411958611E-01 1.364680383086E-01 1.846194853368E-01
H -1.874697361897E-01 2.807544572324E-01 1.391986814202E-01
H 1.333799279178E-01 -1.831128200895E-01 2.688355891981E-01
H 2.788628812635E-01 1.490391949037E-01 -1.963513170335E-01
H 1.936200996783E-01 2.874127665744E-01 -1.304786294894E-01
H -1.309050321289E-01 1.932311929543E-01 2.771992963162E-01
H 2.776500505192E-01 -1.266919698903E-01 1.998390198991E-01
H 1.224369619456E-01 3.545313778962E-01 1.112668947034E-01
H 1.198521828213E-01 1.219203511612E-01 3.527013366944E-01
H 3.517360375169E-01 1.147126528426E-01 1.130834453413E-01
H -1.261321475525E-01 3.622099502271E-01 -1.337950206363E-01
H -1.195488995341E-01 -1.218629135834E-01 3.484360754510E-01
H 3.576178640085E-01 -1.333988138682E-01 -1.149066473021E-01
H 1.129185581910E-01 -3.661608462742E-01 -1.362038826569E-01
H -1.232848313771E-01 1.116670870613E-01 -3.564589301774E-01
H -3.646847681343E-01 -1.388543830388E-01 1.223544427411E-01
H -1.193294958803E-01 -3.605636945718E-01 1.077519296050E-01
H 1.173125714867E-01 -1.170490996392E-01 -3.528213405428E-01
H -3.577112027419E-01 1.075027331957E-01 -1.309319077165E-01
H -1.225185985461E-01 -3.495629348036E-01 -9.982688217176E-02
H -1.084730058544E-01 -1.221475022424E-01 -3.469020585288E-01
H -3.481375057917E-01 -1.029732232782E-01 -1.127335366200E-01
H 1.250328267020E-01 -3.657179900241E-01 1.371296282666E-01
H 1.202850305788E-01 1.274545051304E-01 -3.534175927264E-01
H -3.610979198303E-01 1.345312091272E-01 1.145201531665E-01
H -1.176549616786E-01 3.647721921042E-01 1.378676674880E-01
H 1.200664366708E-01 -1.163124323076E-01 3.534226392269E-01
H 3.652856923952E-01 1.432774349578E-01 -1.300595763606E-01
H 1.224846702655E-01 3.660351576494E-01 -1.187947072335E-01
H -1.200912364619E-01 1.200126466392E-01 3.561950149166E-01
H 3.598433548964E-01 -1.148470855541E-01 1.314931307134E-01
H 1.222580391647E-01 3.695870070453E-01 2.968587799449E-01
H 3.036429220209E-01 1.135756033036E-01 3.639762864762E-01
H 3.743362548068E-01 2.983110374792E-01 1.093797054096E-01
H -1.291684364880E-01 3.696605156592E-01 -3.198833023409E-01
H -2.997802662489E-01 -1.469721372184E-01 3.784450592844E-01
H 3.685897739622E-01 -3.171594949895E-01 -1.244061249337E-01
H 1.078045384738E-01 -3.666137170693E-01 -3.224149516515E-01
H -3.049631201692E-01 1.184394055529E-01 -3.888983433511E-01
H -3.692725660127E-01 -3.230754497595E-01 1.104884467199E-01
H -1.036857712779E-01 -3.759050252474E-01 2.928867520867E-01
H 3.009882922509E-01 -1.046141553458E-01 -3.643746706531E-01
H -3.726764355620E-01 2.906312996453E-01 -1.170046949529E-01
H -1.224099441246E-01 -3.681317247666E-01 -2.851497249952E-01
H -2.917370421640E-01 -1.102198311833E-01 -3.623844622961E-01
H -3.736542844093E-01 -2.862566013072E-01 -1.073600739521E-01
H 1.255586120050E-01 -3.703137930083E-01 3.232892316046E-01
H 3.009626098862E-01 1.436567710587E-01 -3.853168163293E-01
H -3.701622827354E-01 3.184597225881E-01 1.236441548781E-01
H -1.166614393347E-01 3.708502519942E-01 3.240012505226E-01
H 3.010655895075E-01 -1.182687410558E-01 3.909732800627E-01
H 3.752219032150E-01 3.274886458186E-01 -1.195474633923E-01
H 1.049948807533E-01 3.804273397485E-01 -3.038196371647E-01
H -3.033296271921E-01 9.897964454753E-02 3.641632419568E-01
H 3.729234243479E-01 -2.982112338369E-01 1.187762036771E-01
H 1.864528537138E-01 2.844999148472E-01 3.057147965885E-01
H 3.127835539857E-01 1.788519486405E-01 2.778259949228E-01
H 2.892485915715E-01 3.092217726821E-01 1.739456292339E-01
H -1.923838339304E-01 2.807783536948E-01 -3.240889154121E-01
H -3.090150080163E-01 -2.100735913922E-01 2.899147557514E-01
H 2.834944125603E-01 -3.213727849794E-01 -1.927125966241E-01
H 1.793479417664E-01 -2.840840573659E-01 -3.239707255725E-01
H -3.158588900107E-01 1.830021353488E-01 -3.020005501895E-01
H -2.813439789457E-01 -3.279901964808E-01 1.746988379411E-01
H -1.718363335592E-01 -2.947751252369E-01 3.056827722097E-01
H 3.113235708600E-01 -1.789385676351E-01 -2.862963135986E-01
H -2.901743167055E-01 3.052324830510E-01 -1.843533017051E-01
H -1.818250791476E-01 -2.799964141850E-01 -2.959458218612E-01
H -3.039096718556E-01 -1.707849703080E-01 -2.731479347660E-01
H -2.856513853127E-01 -2.994062800928E-01 -1.670216937957E-01
H 1.922219140589E-01 -2.839245389613E-01 3.269200429457E-01
H 3.131006428566E-01 2.114299525212E-01 -3.004586647180E-01
H -2.876296942223E-01 3.215436854197E-01 1.949713438758E-01
H -1.867902644278E-01 2.871181159304E-01 3.265394238929E-01
H 3.158254134493E-01 -1.839652838612E-01 3.055012567182E-01
H 2.888112192498E-01 3.345185576826E-01 -1.855479592786E-01
H 1.762175892205E-01 3.020260836362E-01 -3.168236252969E-01
H -3.156882318583E-01 1.741428680319E-01 2.870573036090E-01
H 2.914109720052E-01 -3.113913645471E-01 1.875791455103E-01
H 6.277054448159E-02 -4.395674915150E-01 -5.158529103439E-02
H -5.241325611918E-02 6.712918832102E-02 -4.462770435375E-01
H -4.432139448410E-01 -4.464779593263E-02 6.908720008603E-02
H -7.421039812071E-03 -4.150950790795E-01 5.325613018356E-02
H 5.075421300541E-02 7.392760491655E-04 -4.093803683157E-01
H -4.154068880009E-01 5.247621264876E-02 -1.306442808195E-02
H -8.641694437270E-03 -4.134652359388E-01 -5.124210062039E-02
H -5.251522064001E-02 -9.682245229448E-04 -4.117330856457E-01
H -4.140958123264E-01 -5.047134951994E-02 -1.739493934429E-03
H 6.508934218329E-02 -4.378896045454E-01 5.178192845943E-02
H 5.076426881060E-02 7.007759011303E-02 -4.411607499568E-01
H -4.368851479954E-01 5.747883724363E-02 6.043625448850E-02
H 3.507488979106E-01 2.090009651938E-02 4.165521363363E-01
H -3.565598282704E-01 -5.659360980078E-02 4.193384872644E-01
H -3.458258437732E-01 2.379693049496E-02 -4.210077248408E-01
H 3.525779059834E-01 -1.412206257462E-02 -4.078865670403E-01
H 4.589821023030E-01 1.214347595804E-02 4.102541755758E-01
H -4.653907002292E-01 -5.382662060809E-02 4.173685678904E-01
H -4.541620728951E-01 3.008643257423E-02 -4.146246052906E-01
H 4.608262407940E-01 -2.454341763083E-02 -4.053038913072E-01
H 2.682231575525E-02 4.098783395430E-01 5.150777361067E-02
H 5.313737497730E-02 1.570997666880E-02 4.106531374879E-01
H 4.102290566313E-01 5.328005356787E-02 2.539544920613E-02
H -7.790167115158E-02 4.460185812503E-01 -5.032086751863E-02
H -4.939473467784E-02 -8.339198901190E-02 4.555112209092E-01
H 4.481849170052E-01 -5.524309492283E-02 -7.656138536285E-02
H -7.074440838713E-02 4.419168948357E-01 5.296156038332E-02
H 5.403298673964E-02 -7.680873390862E-02 4.552746470399E-01
H 4.410489966197E-01 4.701764085658E-02 -7.394480336064E-02
H 1.820552799559E-02 4.100114363493E-01 -5.214878747669E-02
H -4.969547494024E-02 7.719109874832E-03 4.078960753679E-01
H 4.083845485798E-01 -4.955226813693E-02 1.874006445577E-02
H 8.407490650950E-02 4.606437429681E-01 4.846485750764E-02
H 4.971281521171E-02 7.858711612402E-02 4.538731204969E-01
H 4.620391243225E-01 5.172232037618E-02 8.192770462196E-02
H -8.808766091305E-02 -4.784290116619E-01 -4.777892296094E-02
H -4.862478201919E-02 -8.649468848908E-02 -4.675163116956E-01
H -4.759610006819E-01 -5.019227886367E-02 -8.416616207415E-02
H -8.440761283054E-02 -4.831653438303E-01 5.661696083385E-02
H 5.499499573079E-02 -8.287554195526E-02 -4.679920841153E-01
H -4.842905188006E-01 5.282405119786E-02 -8.963871680254E-02
H 7.768791086592E-02 4.580927103430E-01 -5.531948877803E-02
H -5.333256938777E-02 7.204641562759E-02 4.486125195465E-01
H 4.534881561078E-01 -5.122782243643E-02 8.087196058582E-02
N -2.303595766588E-01 2.215275903345E-01 -2.331911655416E-01
N -2.236070669631E-01 -2.375716752518E-01 2.202258189575E-01
N 2.249282070233E-01 -2.310319088417E-01 -2.308791101607E-01
N -2.188689472385E-01 -2.149167531089E-01 -2.092762016697E-01
N 2.324287955199E-01 -2.267257486509E-01 2.359198032528E-01
N 2.293296185138E-01 2.455593311938E-01 -2.316929104808E-01
N -2.302827149637E-01 2.311415541276E-01 2.339444872167E-01
N 2.528913542474E-03 4.959353844010E-01 5.610727874146E-02
N 5.557266752590E-02 1.379345619246E-03 -4.997743640145E-01
N 4.959471369535E-01 5.636408679981E-02 -1.510056966854E-03
N -2.657541587884E-03 4.970563367527E-01 -5.506623078694E-02
N -5.436423188567E-02 -3.862764776359E-03 4.976398003349E-01
N 4.960951222299E-01 -5.411701199379E-02 1.407639431979E-03
N 3.496326194041E-01 3.922391880685E-03 -4.955675778990E-01
N -3.490163451247E-01 -1.657945752692E-02 4.991932744455E-01
N 2.256737407131E-01 2.230060644565E-01 2.174511081152E-01
O 6.420629198662E-02 4.344780130173E-01 1.502527867840E-01
O 1.599920927725E-01 6.777596445875E-02 4.391229302675E-01
O 4.348610784127E-01 1.517412208051E-01 5.448582227689E-02
O -6.778445403178E-02 4.419010145993E-01 -1.765436772436E-01
O -1.580671692697E-01 -6.849134206835E-02 4.339059098572E-01
O 4.381371017174E-01 -1.756058440090E-01 -5.725773641514E-02
O 4.838481713551E-02 -4.398346254006E-01 -1.805018195495E-01
O -1.600954565663E-01 5.180397002955E-02 -4.392213654227E-01
O -4.429773642050E-01 -1.804104116324E-01 5.949511848278E-02
O -5.392780172823E-02 -4.391325360049E-01 1.442787716984E-01
O 1.564677670338E-01 -5.591689806520E-02 -4.356412622290E-01
O -4.379667406509E-01 1.428565480203E-01 -6.495231270615E-02
O -6.563312706464E-02 -4.342511473435E-01 -1.389826265250E-01
O -1.462957763215E-01 -6.817447648673E-02 -4.363000174948E-01
O -4.356454750793E-01 -1.395058737956E-01 -5.552027362238E-02
O 6.421527513133E-02 -4.433132996887E-01 1.802757780318E-01
O 1.563145953217E-01 6.673233318846E-02 -4.344886008268E-01
O -4.403972866027E-01 1.779662741490E-01 5.517968618454E-02
O -5.373640282040E-02 4.397623495884E-01 1.813163410661E-01
O 1.540702769273E-01 -5.319300743241E-02 4.360569477060E-01
O 4.424201674774E-01 1.829223511629E-01 -6.418791964588E-02
O 5.364537203179E-02 4.398722214666E-01 -1.536301411948E-01
O -1.569323924184E-01 5.461948997489E-02 4.356810935264E-01
O 4.371569287767E-01 -1.499973235039E-01 6.502636632490E-02
O 6.405187652044E-02 4.373386529458E-01 2.484564894552E-01
O 2.550176398192E-01 5.109375867925E-02 4.290512026840E-01
O 4.424629486144E-01 2.489386368577E-01 5.461176867524E-02
O -7.260038685351E-02 4.442703532275E-01 -2.751002449403E-01
O -2.538403010186E-01 -8.386794137218E-02 4.454253909565E-01
O 4.379140255127E-01 -2.733127061478E-01 -6.068422848493E-02
O 4.329848810084E-02 -4.355001612155E-01 -2.788442759301E-01
O -2.562320761332E-01 5.868225079681E-02 -4.543701861027E-01
O -4.427034374301E-01 -2.779686329521E-01 5.505478424202E-02
O -5.007838201050E-02 -4.430556282440E-01 2.422616381459E-01
O 2.515639617469E-01 -3.596854309335E-02 -4.217953349329E-01
O -4.383096195790E-01 2.399269945860E-01 -6.066488601212E-02
O -6.981718194024E-02 -4.383671405075E-01 -2.369092550003E-01
O -2.425838015946E-01 -5.695646469703E-02 -4.321881842004E-01
O -4.443655544276E-01 -2.363626590807E-01 -5.874800974986E-02
O 6.520684658038E-02 -4.423148783562E-01 2.788615547068E-01
O 2.515092317177E-01 8.103297904671E-02 -4.504258134170E-01
O -4.363401342172E-01 2.756920943008E-01 5.583282896914E-02
O -5.309790990654E-02 4.401382624383E-01 2.798658886924E-01
O 2.483714303456E-01 -6.457752941103E-02 4.581788767676E-01
O 4.469143455674E-01 2.806290024409E-01 -6.303309601054E-02
O 4.649920776407E-02 4.444377686272E-01 -2.515812552783E-01
O -2.521933157174E-01 3.419421664522E-02 4.242364460751E-01
O 4.378559205408E-01 -2.471202426886E-01 5.903076186449E-02
ZN -7.993976207342E-03 -4.997552037186E-01 -1.455651775302E-01
ZN -1.435258758409E-01 -7.963782852818E-03 4.974568493450E-01
ZN 4.978510566016E-01 -1.444497178596E-01 2.284146962113E-03
ZN 7.089448730185E-03 4.975979200697E-01 2.632692296388E-01
ZN 2.625896802750E-01 8.527041094574E-03 -4.956226708671E-01
ZN -4.963228530347E-01 2.622026902925E-01 -3.000519121918E-03
ZN -1.328482416667E-02 -4.963948491415E-01 -2.614592900009E-01
ZN -2.617830541462E-01 -1.351844016278E-02 4.956535247268E-01
ZN 4.966666944924E-01 -2.595403965116E-01 -7.683801005534E-04
ZN 5.358665322023E-03 4.973477185739E-01 1.470059041107E-01
ZN 1.446036677127E-01 5.953427536425E-03 -4.983918576292E-01
ZN 4.987959337086E-01 1.469529623769E-01 -4.336058418705E-03


