data_foo_97
_symmetry_space_group_name_H-M 'R 3'
_space_group_IT_number         146
_cell_length_a                 33.01557591
_cell_length_b                 33.01557591
_cell_length_c                 39.52671773
_cell_angle_alpha              90.000000
_cell_angle_beta               90.000000
_cell_angle_gamma              120.000000
loop_
_atom_site_type_symbol
_atom_site_fract_x
_atom_site_fract_y
_atom_site_fract_z
C -4.042217801545E-02 4.386619012676E-03 2.454618475837E-01
C -1.548825930685E-01 1.844917074899E-01 -5.167972220448E-02
C 3.095147433248E-01 1.338371049705E-01 -1.092793501993E-01
C -1.148019706638E-01 -3.222126927681E-01 -8.457598852374E-02
C 3.877610122313E-02 -7.054292377743E-03 -2.194801395417E-01
C 1.402835623558E-01 -1.646420415998E-01 4.137777010774E-02
C -2.754101931940E-01 -1.144939124300E-01 9.857506853555E-02
C 9.732048351849E-02 2.863306625982E-01 7.748975351839E-02
C -4.186624651125E-02 4.030762540516E-02 2.271410806405E-01
C -1.656459494039E-01 1.627612033474E-01 -1.965147371886E-02
C 2.852724846040E-01 8.509787605109E-02 -1.037413999546E-01
C -7.741303072932E-02 -2.868676913053E-01 -1.032785133231E-01
C 3.841674904252E-02 -4.439673147485E-02 -2.018806896162E-01
C 1.538203949690E-01 -1.412040977529E-01 1.001531632884E-02
C -2.527660417717E-01 -6.605671914157E-02 9.194132694394E-02
C 6.155021836201E-02 2.512725624743E-01 9.747194203258E-02
C -8.184518472766E-02 4.435902776369E-02 2.279904476753E-01
C -1.551380555621E-01 1.897431444621E-01 9.578426463009E-03
C 2.732419894413E-01 5.447623027734E-02 -1.309746541727E-01
C -3.536466991401E-02 -2.868571315794E-01 -1.061056197385E-01
C 7.621606795785E-02 -5.189251665691E-02 -2.046039707220E-01
C 1.483413036257E-01 -1.663029659408E-01 -1.962714221509E-02
C -2.440091107351E-01 -3.460061377769E-02 1.182088689800E-01
C 2.072926645374E-02 2.525906876031E-01 1.038990469744E-01
C -1.211119273976E-01 1.273776931371E-02 2.468219353676E-01
C -1.334466190915E-01 2.386645822981E-01 7.559502990490E-03
C 2.846759402802E-01 7.163923106347E-02 -1.641679925405E-01
C -2.943458942249E-02 -3.215844258706E-01 -9.022156902075E-02
C 1.150962038038E-01 -2.230715562378E-02 -2.245720999115E-01
C 1.289911168156E-01 -2.150531658903E-01 -1.872563294584E-02
C -2.571017327277E-01 -5.059047616937E-02 1.515226945022E-01
C 1.442604220559E-02 2.883886892008E-01 9.037977768454E-02
C -1.195285727324E-01 -2.296262999675E-02 2.650906939847E-01
C -1.229438129362E-01 2.601672939873E-01 -2.441176915108E-02
C 3.085560165358E-01 1.202063432410E-01 -1.696274913559E-01
C -6.676392875622E-02 -3.567386013921E-01 -7.162163370525E-02
C 1.154696565901E-01 1.507925655043E-02 -2.418285946788E-01
C 1.152775639025E-01 -2.382560152172E-01 1.256919050932E-02
C -2.790819206771E-01 -9.882388471347E-02 1.580808716342E-01
C 4.995806948157E-02 3.229373529624E-01 7.019644378246E-02
C -7.967177472715E-02 -2.713185721282E-02 2.646125193039E-01
C -1.337094199623E-01 2.335493292840E-01 -5.375228180364E-02
C 3.210820312133E-01 1.511214447612E-01 -1.425784958605E-01
C -1.090428550742E-01 -3.573668343264E-01 -6.889779988702E-02
C 7.780730518470E-02 2.270840699890E-02 -2.394925810984E-01
C 1.209237749311E-01 -2.135554617230E-01 4.231821854865E-02
C -2.883604003201E-01 -1.305774977254E-01 1.320174297580E-01
C 9.098224535042E-02 3.222147889340E-01 6.384138380028E-02
C -1.646590016430E-01 1.546012825628E-02 2.470413822393E-01
C -1.202123357521E-01 2.683105610343E-01 3.840444578438E-02
C 2.710312417907E-01 3.945448570166E-02 -1.935879684422E-01
C 1.557693005200E-02 -3.214727104618E-01 -9.188425453252E-02
C 1.560491287830E-01 -2.933027130293E-02 -2.276825773985E-01
C 1.221948752592E-01 -2.430881614459E-01 -4.987361189828E-02
C -2.480737567289E-01 -1.772954848456E-02 1.800548383253E-01
C -2.872265372865E-02 2.908954491536E-01 9.655228868459E-02
C 1.380079323956E-01 -1.400154909839E-01 -1.692628999195E-01
C 1.205052902609E-01 -1.828826868862E-01 -1.456698065331E-01
C -1.351354327551E-01 1.625826405890E-01 1.957478221997E-01
C -1.551739507212E-01 1.660970217861E-01 1.275553146462E-01
C -1.805477219099E-01 1.193787846633E-01 1.471913091125E-01
C -1.171307425076E-01 2.102168980427E-01 1.777923816878E-01
H -1.133685996666E-02 6.466521688465E-02 2.121702818932E-01
H -1.820130865045E-01 1.245974397115E-01 -1.810537145352E-02
H 2.761012427389E-01 7.178374941593E-02 -7.781170660674E-02
H -8.182068745176E-02 -2.594116793918E-01 -1.153463283067E-01
H 8.077440650995E-03 -6.733642220777E-02 -1.861976436991E-01
H 1.687034294846E-01 -1.031593997270E-01 9.314137772227E-03
H -2.424957338354E-01 -5.365183090416E-02 6.590852705929E-02
H 6.639150873861E-02 2.232056762054E-01 1.079138573856E-01
H -8.374593675221E-02 7.176015337897E-02 2.136071604399E-01
H -1.627836478483E-01 1.733810728645E-01 3.466562379540E-02
H 2.541465967474E-01 1.649872756651E-02 -1.271275774999E-01
H -5.910773451912E-03 -2.593208680795E-01 -1.202937982753E-01
H 7.651241487848E-02 -8.068593251852E-02 -1.909917819402E-01
H 1.586048278939E-01 -1.484370608858E-01 -4.415321447776E-02
H -2.264708471603E-01 3.144264645387E-03 1.134146011099E-01
H -7.280923530214E-03 2.254545897150E-01 1.193587887648E-01
H -1.503804598778E-01 -4.707456557778E-02 2.798611849354E-01
H -1.063973828151E-01 2.983561223466E-01 -2.549528985429E-02
H 3.174239420926E-01 1.329396628523E-01 -1.956987330722E-01
H -6.168178849170E-02 -3.837946629469E-01 -5.961543649909E-02
H 1.459695126985E-01 3.755179624224E-02 -2.575052759298E-01
H 1.006386906168E-01 -2.762520117983E-01 1.282705671479E-02
H -2.893506756987E-01 -1.106696432921E-01 1.842025472261E-01
H 4.462056886751E-02 3.508303002196E-01 6.008525264058E-02
H -7.830040265412E-02 -5.470792775322E-02 2.791432375364E-01
H -1.259096574075E-01 2.503521112475E-01 -7.867828523470E-02
H 3.402806686297E-01 1.890108321470E-01 -1.468447102374E-01
H -1.382408367175E-01 -3.851941554015E-01 -5.471605475786E-02
H 7.786912087367E-02 5.146197450035E-02 -2.534065487678E-01
H 1.108631938700E-01 -2.317389701411E-01 6.671996751466E-02
H -3.063263974991E-01 -1.682450914808E-01 1.371436274610E-01
H 1.189003201369E-01 3.497632691543E-01 4.859533594682E-02
H 1.420708482257E-01 -1.087981114595E-01 -1.559484341108E-01
H 8.400254010224E-02 -2.099271306431E-01 -1.512984493108E-01
H 1.142378240715E-01 -1.461877294593E-01 -1.907440917023E-01
H 1.219824502447E-01 -1.738949722877E-01 -1.185944238930E-01
H -1.129344338663E-01 1.470352047543E-01 1.903380787119E-01
H -1.197603399580E-01 1.750270897401E-01 1.190750615536E-01
H -1.625977078360E-01 9.886544094705E-02 1.449932374663E-01
H -8.191052099141E-02 2.238892970433E-01 1.667898980898E-01
H 1.962028024824E-01 -1.682354145898E-01 -1.098321672675E-01
H -1.748728636663E-01 1.658344028434E-01 1.048490647874E-01
H -2.167670910789E-01 9.640868562539E-02 1.384010677248E-01
H 2.175290049823E-01 -9.615818777418E-02 -1.382401231566E-01
N -1.649798826107E-01 1.575929574358E-01 -8.157527432869E-02
N 1.117598673318E-19 7.948457319924E-20 -2.175068107841E-01
N 1.465988629260E-01 -1.393921260664E-01 7.171233383096E-02
N -1.830476216804E-01 1.287049098433E-01 1.836528833753E-01
N 1.841824911227E-01 -1.280798058870E-01 -1.837227220518E-01
N 1.117598673318E-19 7.948457319924E-20 2.447470075835E-01
O -1.657618541053E-01 4.778415689491E-02 2.299491599498E-01
O -1.306523444480E-01 2.485498650950E-01 6.740476865466E-02
O 2.492445211612E-01 -4.636355622334E-03 -1.881256732884E-01
O 4.928910690025E-02 -2.897920568264E-01 -1.091603050793E-01
O 1.551342021230E-01 -6.360049075170E-02 -2.118750788267E-01
O 1.351972153959E-01 -2.219820521183E-01 -7.840382729990E-02
O -2.285571154225E-01 2.605077532689E-02 1.736177050177E-01
O -6.096355812193E-02 2.598747659737E-01 1.153426643333E-01
O -1.988651969125E-01 -1.596145841830E-02 2.643516797348E-01
O -9.813623602095E-02 3.127018390974E-01 3.342384429152E-02
O 2.818278993969E-01 5.874881998068E-02 -2.228940725675E-01
O 1.740802369029E-02 -3.537596187921E-01 -7.498790041340E-02
O 1.896420252395E-01 -1.142542006796E-05 -2.460030300084E-01
O 1.033227075937E-01 -2.870363429393E-01 -4.580519288337E-02
O -2.604776746356E-01 -3.597682575902E-02 2.092713513977E-01
O -3.056349791676E-02 3.244246868454E-01 8.224983220054E-02
Zn 2.140420886821E-01 -6.751300468432E-02 -2.142752856692E-01
Zn -2.517288466633E-01 -7.074758751861E-03 2.550295983136E-01
Zn 2.524983450265E-01 7.693419494626E-03 -2.552815544011E-01
Zn -2.129703503944E-01 6.821663473384E-02 2.142282639254E-01


