data_SOF-9
_symmetry_space_group_name_H-M 'P ba2'
_space_group_IT_number         32
_cell_length_a                 18.04229876
_cell_length_b                 20.48422962
_cell_length_c                 21.31144851
_cell_angle_alpha              90.000000
_cell_angle_beta               90.000000
_cell_angle_gamma              90.000000

loop_
_atom_site_type_symbol
_atom_site_fract_x
_atom_site_fract_y
_atom_site_fract_z
C -2.570628295765E-02 2.395948035600E-01 4.090922330660E-02
N 7.740334142659E-02 2.376884188628E-01 1.405035619701E-01
N -3.118597521523E-01 2.492644393282E-01 -2.808489121963E-01
C 4.470284995595E-02 1.820685139275E-01 1.220341430113E-01
O -1.060820797407E-01 1.370906139670E-01 1.908123601696E-01
C -3.268324382187E-01 2.617715355965E-01 3.732611039333E-01
C -2.418586170341E-01 1.874790772975E-01 -2.050524262719E-01
C -2.341452846763E-01 2.032011502436E-01 3.065103207555E-01
H -2.464099922427E-01 1.580773649412E-01 3.321811530264E-01
C -1.806959048415E-01 2.018902281991E-01 2.587555492980E-01
C -7.762976340910E-03 1.809312717714E-01 7.220716594131E-02
C 6.059772990941E-02 2.939309925761E-01 1.118197139111E-01
C 6.493444249743E-02 1.230233957145E-01 1.580495636275E-01
C 4.130554214676E-01 2.485348318103E-01 -3.722887457547E-01
H 3.728418641046E-01 2.463520449707E-01 -3.337748728653E-01
C -1.630581130307E-01 2.590633616284E-01 2.261500167593E-01
H -1.202854183486E-01 2.575220449797E-01 1.896444624134E-01
C -2.337593503682E-01 3.055660066380E-01 -2.066687691619E-01
C 4.318243238907E-01 3.086992998645E-01 -3.988554262622E-01
O -1.548623102727E-01 9.086655908030E-02 2.784781684231E-01
C -4.300359794277E-01 2.567794675642E-01 4.751966824169E-01
O 4.246042783179E-01 4.233565893418E-01 -3.965436923584E-01
H 3.993844928761E-01 4.668490287740E-01 -3.737700748548E-01
O 3.414527728528E-01 3.667334770825E-01 -3.379596426018E-01
C -2.921247273059E-01 1.916810115396E-01 -2.562242643616E-01
O -1.168402317384E-01 3.818362295557E-01 1.781984302748E-01
C -4.839267719370E-01 2.540299306081E-01 -4.718720691717E-01
C 9.483888500695E-03 2.973483057248E-01 6.134385750317E-02
C -3.988310325066E-01 2.363892709651E-01 3.633935904579E-01
C 4.952929478396E-01 1.938564631370E-01 -4.454481315682E-01
H -4.819181597902E-01 1.481895256421E-01 -4.641441578285E-01
C -4.475547341935E-02 1.221760751465E-01 5.442824540937E-02
C -1.687269611717E-01 2.437113923298E-01 -1.203401038884E-01
C 4.448983970738E-01 1.910542773366E-01 -3.952753790338E-01
O -2.250584643579E-01 4.263399646768E-01 2.122815886451E-01
H -2.049897762093E-01 4.714267092666E-01 1.909578355511E-01
C -2.537101915193E-01 3.183863546772E-01 2.878253390132E-01
H -2.814802115768E-01 3.646314193238E-01 2.986785654647E-01
N 1.020605318928E-01 1.407272950774E-02 2.303144678682E-01
C -3.058381569782E-01 2.848525631159E-01 4.332625607183E-01
C -2.713849332547E-01 2.614386312434E-01 3.214415117593E-01
C -4.513307126658E-01 2.346325458152E-01 4.148818793838E-01
C -3.118015599012E-01 3.654993874949E-01 -2.883286923861E-01
O 4.472982934030E-01 7.578864863041E-02 -3.960617603122E-01
C -2.146163910860E-01 2.456557447328E-01 -1.778030000864E-01
C -4.928132173652E-01 1.893728859922E-01 2.939038641594E-01
H 4.896042408888E-01 1.714340797958E-01 2.476474806560E-01
C -1.992565219603E-01 3.175269818204E-01 2.406093902426E-01
C -4.220739528932E-01 2.129170093601E-01 3.032440673338E-01
H -3.824755573200E-01 2.144395822633E-01 2.641335560166E-01
C -1.429243285278E-01 1.400452634606E-01 2.400517522436E-01
C -3.575675450996E-01 2.812130970216E-01 4.851218106851E-01
C 3.945159201716E-01 3.690677599835E-01 -3.747664454290E-01
C 7.646064163507E-02 6.205737001380E-02 1.297620998464E-01
H 7.170024744558E-02 5.406643253165E-02 7.906331067451E-02
C -3.272075110002E-01 1.335722529757E-01 -2.849114897830E-01
C 4.232504082186E-01 1.277495054539E-01 -3.656142114794E-01
C 9.477176259060E-02 9.050292966235E-03 1.677623000444E-01
H 1.022708278375E-01 -4.028858623686E-02 1.484982526963E-01
C 4.839595648518E-01 3.113963326578E-01 -4.478335043564E-01
H 4.982444315175E-01 3.590085482576E-01 -4.680495077746E-01
C -1.766532698183E-01 3.785828845861E-01 2.072038064203E-01
N 1.747245464002E-01 4.662681424723E-01 1.682502858890E-01
N -3.942566292832E-01 2.661341031797E-02 -3.431376642369E-01
C 7.356006983667E-02 1.282536002753E-01 2.234359684044E-01
H 6.495562706472E-02 1.753463661143E-01 2.468714787268E-01
O 3.856445629794E-01 1.261873748417E-01 -3.168798066965E-01
C -1.468043433023E-01 2.741630108144E-01 -9.426128659045E-03
C 4.555978766755E-01 1.884654436287E-01 3.442986277877E-01
H 3.991740834741E-01 1.705056518224E-01 3.358027253838E-01
C -2.834139142411E-01 3.051739474143E-01 -2.584993568812E-01
C -1.712852224304E-01 3.056459872161E-01 4.629743357047E-02
H -1.351600371492E-01 3.072582876544E-01 8.771524390918E-02
N -3.718578875639E-01 4.761795308626E-01 -3.446826155920E-01
C 9.187304091514E-02 7.262077314232E-02 2.575879927382E-01
H 9.827655915064E-02 7.452675954662E-02 3.087991940963E-01
C -2.175819670989E-01 1.258862150372E-01 -1.814539116920E-01
C -2.024298242936E-01 3.646818532246E-01 -1.830220819518E-01
C -7.743450706086E-02 2.403835212487E-01 -1.288641124637E-02
C -2.620009765090E-01 3.250374199522E-01 -4.449789644428E-01
H -2.438510308165E-01 3.396169580049E-01 -3.978761830287E-01
C -3.380865959817E-03 3.569903627821E-01 2.848612996776E-02
N -7.478910431271E-02 7.346764593444E-02 4.000374352832E-02
C 2.125949425570E-01 4.109843696433E-01 1.567973915341E-01
H 2.732151605484E-01 4.134477590852E-01 1.603567355071E-01
C -3.324980946267E-01 3.009742105063E-01 -4.541300670573E-01
H -3.706171749040E-01 2.962653364768E-01 -4.142977828353E-01
C -2.335129641822E-01 3.107078752245E-01 4.447356818290E-01
H -1.946917926229E-01 3.136018551836E-01 4.052432167961E-01
N -1.964504636009E-01 7.499394106163E-02 -1.631705434484E-01
C -4.124483010800E-01 4.212870852504E-01 -3.401661672514E-01
H -4.686303676539E-01 4.229838975118E-01 -3.603313347373E-01
C -1.939884067696E-01 2.747282172863E-01 -6.383244989577E-02
N -1.752800083327E-01 4.133719646696E-01 -1.649142014551E-01
C -1.018431207710E-01 2.102532815634E-01 -1.211948496594E-01
H -8.354069709886E-02 1.861040291486E-01 -1.644058109468E-01
C -3.847367749388E-01 3.652361722473E-01 -3.116315996566E-01
H -4.187134512688E-01 3.210340606705E-01 -3.078344629613E-01
C 1.004158390340E-01 4.660495920752E-01 1.636333393984E-01
H 7.411658741819E-02 -4.868427659751E-01 1.742621705662E-01
N -1.320619604811E-02 4.057381960750E-01 5.481480181095E-04
C 1.772999884073E-01 3.529803658673E-01 1.399916374891E-01
H 2.094003328580E-01 3.085108905506E-01 1.310044255488E-01
C -3.491490931988E-01 7.876499067070E-02 -2.498393171424E-01
H -3.410764605373E-01 7.564846689484E-02 -1.990039861922E-01
C 9.991598498323E-02 3.532024338702E-01 1.332738497918E-01
C -2.122347567522E-01 3.308938561829E-01 -4.963541718146E-01
H -1.565823441736E-01 3.509810103214E-01 -4.886043446564E-01
C -2.695093793560E-01 4.227220913131E-01 -2.949013704986E-01
H -2.108123984748E-01 4.237468904959E-01 -2.820538887589E-01
C 4.756446408364E-01 2.107055052702E-01 4.028182977375E-01
H 4.351980656051E-01 2.112013913955E-01 4.412708898431E-01
C -3.822722772460E-01 2.634915380664E-02 -2.808968164484E-01
H -3.984917611222E-01 -1.825062458021E-02 -2.556761320035E-01
C -3.743835857653E-01 7.934378154769E-02 -3.768297155640E-01
H -3.855450529893E-01 7.697667447380E-02 -4.273782110844E-01
C 6.058329365940E-02 4.108428346748E-01 1.458364616985E-01
H -1.783352663571E-04 4.116017644561E-01 1.429294501980E-01
C -3.022850561296E-01 4.772591627025E-01 -3.224647584713E-01
H -2.733511671367E-01 -4.757654978393E-01 -3.271976471671E-01
C -3.409667752190E-01 1.337955880622E-01 -3.498495719878E-01
H -3.244938877706E-01 1.759555460476E-01 -3.782886156449E-01
C -2.871931551194E-01 3.345071337579E-01 -3.882558145692E-03
H -3.418166435916E-01 3.579180113482E-01 -1.457394261803E-03
C -2.647771354587E-01 3.047249033919E-01 -5.888079136842E-02
H -3.021468825237E-01 3.039248047497E-01 -9.944296750657E-02
C -2.398770506852E-01 3.356348728641E-01 4.896198524063E-02
H -2.574578848087E-01 3.604854397340E-01 9.208271982364E-02
C -5.670584020369E-02 2.080640115733E-01 -6.739789574109E-02
H -3.716643250863E-03 1.818803940723E-01 -6.904234623204E-02
H 4.261609254653E-01 3.242538525348E-02 -3.730206295277E-01
H -1.292637181996E-01 4.680746174364E-02 2.604028272850E-01

