data_SOF-7
_symmetry_space_group_name_H-M 'C 2/c'
_space_group_IT_number         15
_cell_length_a                 8.19894854
_cell_length_b                 29.66032709
_cell_length_c                 34.45218220
_cell_angle_alpha              90.000000
_cell_angle_beta               101.160551
_cell_angle_gamma              90.000000

loop_
_atom_site_type_symbol
_atom_site_fract_x
_atom_site_fract_y
_atom_site_fract_z
C -1.787884372574E-01 1.631421759524E-01 -2.051952308098E-01
H -1.317528861087E-01 1.943481501704E-01 -2.161489744257E-01
N -2.250736812650E-01 1.302967820409E-01 -2.319784061138E-01
O 2.032525859376E-01 1.345819880602E-01 -1.949015216741E-01
H 2.133167191012E-01 1.328372050042E-01 -2.258890480280E-01
N -4.316243364632E-03 -2.346258405823E-01 -1.186294296042E-02
C -1.888206368709E-01 1.581940524835E-01 -1.655479754136E-01
H -1.483935035256E-01 1.849803608355E-01 -1.438233140428E-01
O 3.400056606889E-01 6.756307604121E-02 -1.906705653907E-01
C -2.451981736990E-01 1.168742145622E-01 -1.530926601515E-01
O 4.649286331008E-02 2.032132073831E-01 -7.545513542964E-02
N -3.067534113761E-01 1.469025960837E-01 -9.329428889113E-02
N -5.838541652333E-02 7.171643913945E-03 -1.237663427438E-01
O 1.315373481518E-01 1.668908277555E-01 -1.702858544754E-02
H 7.267292104274E-02 1.953626929960E-01 -5.082015004475E-03
C -2.942643647438E-01 8.283990887982E-02 -1.811635987177E-01
H -3.463398435415E-01 5.093064266581E-02 -1.732779636056E-01
C -2.829197368137E-01 9.112226103617E-02 -2.204159284185E-01
H -3.204451528270E-01 6.651981155926E-02 -2.443908794301E-01
O 4.692403758333E-01 5.446194749796E-02 1.806233301919E-02
N -1.837351989215E-01 1.209538663235E-01 4.671207626284E-02
N 4.152142127333E-01 2.541830583987E-02 -4.613028091289E-02
H 4.274971835731E-01 -5.096349825135E-03 -5.964655929136E-02
C 7.728190433866E-02 -2.327620546225E-01 -4.221292916314E-02
H 9.098827829959E-02 -1.991746891426E-01 -5.470592253180E-02
C -3.558332202170E-01 2.289093586796E-01 -5.645147151503E-02
H -2.850962124082E-01 2.308716649670E-01 -8.031088573998E-02
C -3.755309319584E-01 1.870315607252E-01 -3.881989876484E-02
C -4.639905523249E-01 1.852432624504E-01 -7.778590489778E-03
H -4.877060167462E-01 1.532362339217E-01 6.013817067278E-03
C 4.752838336584E-01 2.254100699636E-01 4.983792560118E-03
H 4.102415009805E-01 2.265363053163E-01 2.999098050660E-02
C -2.490542112507E-01 1.115163954354E-01 -1.105782146246E-01
C -1.830516212638E-01 7.283521135532E-02 -8.866493033520E-02
C -1.679226302909E-01 7.275218517585E-02 -4.701573216271E-02
C -2.293379064305E-01 1.108264273444E-01 -2.964947433731E-02
C -3.037730138932E-01 1.466453435398E-01 -5.431921306496E-02
C -1.153219705169E-01 3.661975262522E-02 -1.077635487328E-01
C -2.065467704719E-01 1.149558679994E-01 1.231733232641E-02
C -8.333705713953E-02 3.545433642371E-02 -2.276382143437E-02
C -1.268902790426E-01 -9.638491931327E-03 -3.235296072800E-02
H -2.285331632286E-01 -1.749525414395E-02 -5.710005352866E-02
C 4.465600651657E-02 4.477034078839E-02 9.811959998709E-03
H 8.234365322673E-02 7.973887618792E-02 1.697743164919E-02
C 2.019054565108E-01 1.355962747244E-01 -1.147781074705E-01
H 1.480078092402E-01 1.644406543785E-01 -1.325874788503E-01
C 2.707142238834E-01 9.956200698688E-02 -1.324113613507E-01
C 3.399297014155E-01 6.273398957795E-02 -1.095838337342E-01
H 3.889786900493E-01 3.473324247498E-02 -1.247716367606E-01
C 3.444571660997E-01 6.240503435284E-02 -6.867241640742E-02
C 2.760396577832E-01 9.853834578746E-02 -5.086375139147E-02
H 2.796848051527E-01 9.842176830302E-02 -1.899389052205E-02
C 2.020984806453E-01 1.345565475366E-01 -7.411759345031E-02
C 2.740841141282E-01 9.905496937847E-02 -1.757503358549E-01
C 1.195082647798E-01 1.717324369278E-01 -5.570922562745E-02
C 4.680868041412E-01 2.365228190646E-02 -6.386023519046E-03

