data_foo_31
_symmetry_space_group_name_H-M 'F -4 3 M'
_space_group_IT_number         216
_cell_length_a                 20.08487454
_cell_length_b                 20.08487454
_cell_length_c                 20.08487454
_cell_angle_alpha              90.000000
_cell_angle_beta               90.000000
_cell_angle_gamma              90.000000
loop_
_atom_site_type_symbol
_atom_site_fract_x
_atom_site_fract_y
_atom_site_fract_z
TI -9.905391704957E-25 3.843925387724E-01 2.340067303010E-17
C 6.577558962446E-03 2.012136893899E-01 -2.987863106101E-01
C 6.973108770898E-03 -1.830172494465E-01 2.317870990883E-01
C -4.084295483958E-03 -3.511721518394E-01 -1.488278481606E-01
H -9.264937054320E-02 9.264937054320E-02 -4.073506294568E-01
H 6.794453545831E-03 2.191313154087E-01 -1.303951222015E-01
O 2.229319931168E-03 3.316907269107E-01 -8.909250844835E-02
O -4.892284055448E-02 -4.510771594455E-01 -4.892284055448E-02
O 4.350342400640E-01 -6.496575993599E-02 -6.496575993599E-02


