data_foo_12
_symmetry_space_group_name_H-M 'F -4 3 M'
_space_group_IT_number         216
_cell_length_a                 20.72551856
_cell_length_b                 20.72551856
_cell_length_c                 20.72551856
_cell_angle_alpha              90.000000
_cell_angle_beta               90.000000
_cell_angle_gamma              90.000000
loop_
_atom_site_type_symbol
_atom_site_fract_x
_atom_site_fract_y
_atom_site_fract_z
C 6.160343773307E-03 -2.972933411318E-01 2.027066588682E-01
C 6.519453905018E-03 -1.850915190330E-01 2.323558396592E-01
C -3.976620133143E-03 -3.480532277426E-01 -1.519467722574E-01
H 4.060452933853E-01 9.395470661472E-02 9.395470661472E-02
H 6.404041423422E-03 2.200872822153E-01 -1.340993029590E-01
O 2.441533161585E-03 3.294391698419E-01 -9.394509349610E-02
O -4.957147415919E-02 -4.504285258408E-01 -4.957147415919E-02
O 4.328729888542E-01 -6.712701114581E-02 -6.712701114581E-02
ZR 3.739865190310E-24 3.798949738181E-01 0.000000000000E+00


