data_foo_16
_symmetry_space_group_name_H-M 'F -4 3 M'
_space_group_IT_number         216
_cell_length_a                 20.62683624
_cell_length_b                 20.62683624
_cell_length_c                 20.62683624
_cell_angle_alpha              90.000000
_cell_angle_beta               90.000000
_cell_angle_gamma              90.000000
loop_
_atom_site_type_symbol
_atom_site_fract_x
_atom_site_fract_y
_atom_site_fract_z
C 6.378618594354E-03 -2.975445204921E-01 2.024554795079E-01
C 6.756168253880E-03 -1.847961116940E-01 2.322826711685E-01
C -4.085104578985E-03 -3.485551538807E-01 -1.514448461193E-01
H 4.059719988330E-01 9.402800116704E-02 9.402800116704E-02
H 6.620072313172E-03 2.199292342293E-01 -1.335693436854E-01
O 2.437023497065E-03 3.297422207806E-01 -9.318264568083E-02
O -4.959450282480E-02 -4.504054971752E-01 -4.959450282480E-02
O 4.329028701556E-01 -6.709712984445E-02 -6.709712984445E-02
HF 4.285983374807E-22 3.809644611058E-01 0.000000000000E+00


