data_foo_58
_symmetry_space_group_name_H-M 'P 1'
_space_group_IT_number         1
_cell_length_a                 20.54506740
_cell_length_b                 20.53413228
_cell_length_c                 20.75316686
_cell_angle_alpha              89.836395
_cell_angle_beta               90.008770
_cell_angle_gamma              89.848777
loop_
_atom_site_type_symbol
_atom_site_fract_x
_atom_site_fract_y
_atom_site_fract_z
C -4.967282425707E-01 3.143982981749E-01 -2.651018578080E-01
C 3.241034262505E-03 3.151971324242E-01 2.339375135331E-01
C 2.952958370218E-03 -1.850211454378E-01 -2.658848344721E-01
C -4.998323857061E-01 -1.834777640825E-01 2.334599589249E-01
C 1.448848352991E-02 3.163546110769E-01 -2.303239937088E-01
C -4.852228902466E-01 3.176140132562E-01 2.705936677477E-01
C -4.822652353703E-01 -1.847171871326E-01 -2.309466715037E-01
C 1.408539299551E-02 -1.833870928057E-01 2.698360054350E-01
C 1.005415379985E-02 1.856192303489E-01 -2.663542623632E-01
C -4.904150797661E-01 1.868906321193E-01 2.345623683904E-01
C -4.942382963743E-01 -3.151641079662E-01 -2.664279119336E-01
C 9.984280466555E-03 -3.141511373372E-01 2.339088265497E-01
C 4.868869932562E-01 1.841646667420E-01 -2.299728045317E-01
C -1.380136145541E-02 1.850354435269E-01 2.690501993583E-01
C -1.353267075348E-02 -3.152337729785E-01 -2.306363240806E-01
C 4.887913201902E-01 -3.140671739563E-01 2.691939197302E-01
C 2.712522800421E-01 4.883512878883E-01 -3.152383020141E-01
C -2.286387490306E-01 4.890478591737E-01 1.846051626720E-01
C -2.288785355988E-01 -1.146651959041E-02 -3.159472807340E-01
C 2.708091940395E-01 -1.027385129774E-02 1.844326164024E-01
C 2.352873896364E-01 1.254765545071E-02 -3.153541730621E-01
C -2.652469718275E-01 1.440016662051E-02 1.841158869724E-01
C -2.648379935970E-01 -4.875431419515E-01 -3.152076080235E-01
C 2.353041789004E-01 -4.862594193276E-01 1.849104201569E-01
C 2.705543116504E-01 3.939213768376E-03 -1.855641127403E-01
C -2.300675054815E-01 5.779878326491E-03 3.139571737882E-01
C -2.294703402126E-01 -4.953694078544E-01 -1.853948338437E-01
C 2.707364351478E-01 -4.944813811033E-01 3.147013095736E-01
C 2.361156911430E-01 4.946930388104E-01 -1.853493820083E-01
C -2.636752006012E-01 4.961642935187E-01 3.144926182710E-01
C -2.639679221056E-01 -5.356040344520E-03 -1.860460885217E-01
C 2.356167872915E-01 -4.620611762107E-03 3.143565966636E-01
C -4.995009897240E-01 2.669817932623E-01 -3.123545162949E-01
C 3.710253906773E-04 2.677861774595E-01 1.866757295601E-01
C 2.143560433934E-04 -2.324755498515E-01 -3.130980787133E-01
C 4.977881509741E-01 -2.310773798945E-01 1.863655681662E-01
C 1.255440617191E-02 2.335562231598E-01 -3.133663390026E-01
C -4.877985584573E-01 2.347921093346E-01 1.875455812186E-01
C -4.917947024471E-01 -2.674147071127E-01 -3.136157166167E-01
C 1.229954604599E-02 -2.662273087012E-01 1.868633208783E-01
C 1.244981066083E-02 2.684043813735E-01 -1.832917623166E-01
C -4.873622087909E-01 2.696763942783E-01 3.176375464207E-01
C -4.844766255009E-01 -2.324910539692E-01 -1.837586956497E-01
C 1.224660120079E-02 -2.313287249555E-01 3.169021089032E-01
C 4.893267010036E-01 2.316395309488E-01 -1.827348352753E-01
C -1.126392479588E-02 2.324903710182E-01 3.162811372092E-01
C -1.115048806215E-02 -2.677311491768E-01 -1.834500890024E-01
C 4.908929995211E-01 -2.664410869046E-01 3.162896544630E-01
C 3.189638691149E-01 4.859985161104E-01 -2.680970337712E-01
C -1.809067803860E-01 4.866958028940E-01 2.317178099779E-01
C -1.811206538760E-01 -1.354539459610E-02 -2.688286805878E-01
C 3.185486114329E-01 -1.226287866579E-02 2.315471818016E-01
C 3.181458353261E-01 1.781081147848E-03 -2.327661270754E-01
C -1.824642509448E-01 3.496925460737E-03 2.667908506182E-01
C -1.818843088257E-01 -4.973318724888E-01 -2.326020596105E-01
C 3.183041921946E-01 -4.962559349079E-01 2.674792246872E-01
C 1.876545298697E-01 1.443922197762E-02 -2.681426833483E-01
C -3.129037704477E-01 1.641086807471E-02 2.312964512932E-01
C -3.124724367675E-01 -4.858401875305E-01 -2.679851614281E-01
C 1.876913145106E-01 -4.847197580977E-01 2.321481422169E-01
C 1.884461466225E-01 4.972747715866E-01 -2.324748448340E-01
C -3.113587704350E-01 4.987661983905E-01 2.673939660384E-01
C -3.116825993881E-01 -3.044385139041E-03 -2.331333716818E-01
C 1.879188496332E-01 -2.361029621681E-03 2.672556116963E-01
C 5.350110120355E-03 1.519283492129E-01 -1.510589866030E-01
C -4.949055634202E-01 1.531435535445E-01 3.497059995353E-01
C -4.949441301309E-01 -3.485904980826E-01 -1.510524676655E-01
C 5.555479887697E-03 -3.478607155676E-01 3.492314755803E-01
C 4.922421179429E-01 1.510644880466E-01 -3.453943959499E-01
C -8.162165124709E-03 1.517951671881E-01 1.538034814787E-01
C -7.838690173777E-03 -3.484835691743E-01 -3.458777130587E-01
C 4.923055586704E-01 -3.474130566695E-01 1.538799941471E-01
C -4.974131648623E-01 3.474983018725E-01 -1.498524760750E-01
C 2.529987122715E-03 3.481639551085E-01 3.492568966351E-01
C 2.286351983457E-03 -1.519966830190E-01 -1.506265998360E-01
C -4.991322861950E-01 -1.503036432008E-01 3.487760724643E-01
C 1.357438950420E-02 3.500998309051E-01 -3.458047171450E-01
C -4.862895942167E-01 3.511827538233E-01 1.550439617483E-01
C -4.859732548819E-01 -1.510917238034E-01 -3.463099609130E-01
C 1.302291755453E-02 -1.496994267688E-01 1.543018015272E-01
C 1.543550390153E-01 9.989654683323E-03 -1.526976163502E-01
C -3.461856632046E-01 1.189813727590E-02 3.467181074585E-01
C -3.456655520760E-01 -4.900509053214E-01 -1.525027191933E-01
C 1.545472324185E-01 -4.895465310253E-01 3.475737468486E-01
C 3.523206503907E-01 4.890800215736E-01 -1.526213640466E-01
C -1.475287387250E-01 4.899473229108E-01 3.471498672586E-01
C -1.477511509385E-01 -1.051861824930E-02 -1.533212716008E-01
C 3.518790732099E-01 -9.315542198627E-03 3.469613825437E-01
C 1.550090818585E-01 4.986453225895E-01 -3.477204828844E-01
C -3.448643247057E-01 4.995681562483E-01 1.522191114655E-01
C -3.452297813702E-01 -2.018640890047E-03 -3.483608076211E-01
C 1.545096581989E-01 -1.016302749709E-03 1.520334204616E-01
C 3.514409330035E-01 2.227834885080E-03 -3.480890839642E-01
C -1.490827518234E-01 3.654336076839E-03 1.515723291261E-01
C -1.485848033929E-01 -4.970965921046E-01 -3.479067512039E-01
C 3.515031692757E-01 -4.960138132669E-01 1.522115308316E-01
C 4.979781730029E-01 2.966689236046E-01 -2.003982092275E-01
C -2.259035852476E-03 2.974681199711E-01 2.986233385865E-01
C -2.412534782964E-03 -2.027406389157E-01 -2.011899105455E-01
C 4.968777521107E-01 -2.012192738937E-01 2.982863176336E-01
C 1.432273068433E-02 2.988853147415E-01 -2.952235504916E-01
C -4.856421435899E-01 3.000979620044E-01 2.057089045682E-01
C -4.859442766263E-01 -2.022394399502E-01 -2.957375216388E-01
C 1.389936804565E-02 -2.008702284100E-01 2.049424625904E-01
C 9.719871660096E-03 2.031002605721E-01 -2.014552030619E-01
C -4.904665151571E-01 2.044018940651E-01 2.994478614837E-01
C -4.907626064697E-01 -2.975999732482E-01 -2.016706153075E-01
C 9.697241384119E-03 -2.966618130313E-01 2.988061470531E-01
C 4.925298847549E-01 2.018843344823E-01 -2.946699358127E-01
C -7.904074028739E-03 2.027373695631E-01 2.043759989390E-01
C -7.765622072315E-03 -2.975385574889E-01 -2.953212389926E-01
C 4.922495171271E-01 -2.963619533110E-01 2.043293601304E-01
C 2.060858637569E-01 4.943135061017E-01 -2.972780381985E-01
C -2.937599726035E-01 4.953657457428E-01 2.026066407699E-01
C -2.940784886765E-01 -5.958622381578E-03 -2.979491765268E-01
C 2.056045182718E-01 -5.003764873182E-03 2.024479458798E-01
C 3.004485626071E-01 5.930689546432E-03 -2.975269529850E-01
C -2.001253996397E-01 7.656173975111E-03 2.020215094027E-01
C -1.996284337045E-01 -4.935555291053E-01 -2.973686055258E-01
C 3.005059452537E-01 -4.923463038649E-01 2.027367252547E-01
C 2.053175622008E-01 1.012024507335E-02 -2.033479265249E-01
C -2.952601401481E-01 1.210019340764E-02 2.960901459330E-01
C -2.947530394409E-01 -4.897528898119E-01 -2.031823548646E-01
C 2.054520701827E-01 -4.888939125818E-01 2.969235632051E-01
C 3.013607988587E-01 4.891985277071E-01 -2.032544558548E-01
C -1.984818443035E-01 4.902312049345E-01 2.965431196365E-01
C -1.987048757066E-01 -1.050875873963E-02 -2.039872808853E-01
C 3.008950165009E-01 -9.423043643080E-03 2.963903017524E-01
O -4.971086754491E-01 4.061868498392E-01 -1.679080025745E-01
O 2.997737802020E-03 4.069036448806E-01 3.314026347865E-01
O 2.664642365083E-03 -9.328718485832E-02 -1.685876246276E-01
O -4.972515770813E-01 -9.156398267777E-02 3.305016600951E-01
O 6.466507821452E-03 4.085612050713E-01 -3.278206968570E-01
O -4.934070815109E-01 4.096928415761E-01 1.728248158578E-01
O -4.939595331049E-01 -9.282990689532E-02 -3.288302186814E-01
O 5.902880339906E-03 -9.120267100279E-02 1.721767124156E-01
O 1.734417455774E-01 -4.992626503123E-01 -4.056425848708E-01
O -3.265164105766E-01 -4.985809521074E-01 9.425128268900E-02
O -3.269069535746E-01 1.218021762746E-04 -4.062854757354E-01
O 1.729466769424E-01 9.766645519443E-04 9.410378145066E-02
O 3.329595410448E-01 7.043155065032E-04 -4.059803173815E-01
O -1.674386155660E-01 2.040099004740E-03 9.364479155498E-02
O -1.670316668027E-01 -4.987324685406E-01 -4.057855744200E-01
O 3.330323591325E-01 -4.978226044045E-01 9.432591396173E-02
O 4.855618945187E-01 1.697232735915E-01 -4.031200510521E-01
O -1.472958292734E-02 1.701752348883E-01 9.597763033113E-02
O -1.435557216118E-02 -3.300605256063E-01 -4.036871784012E-01
O 4.856578500852E-01 -3.293037146376E-01 9.593910572874E-02
O 2.700695640046E-03 1.702726711680E-01 -9.313970655249E-02
O -4.973302645720E-01 1.712170559733E-01 4.077031934493E-01
O -4.973010173820E-01 -3.299281555686E-01 -9.328474637390E-02
O 3.096035742519E-03 -3.295691799092E-01 4.071639813707E-01
O 4.106426786088E-01 4.969690527667E-01 -1.699457519779E-01
O -8.918423345231E-02 4.977144346983E-01 3.298545948093E-01
O -8.944687897243E-02 -2.434758795145E-03 -1.705808757369E-01
O 4.101157285914E-01 -1.050174194539E-03 3.295953251605E-01
O 9.603944086836E-02 2.541678507902E-03 -1.701221521266E-01
O -4.044649533060E-01 4.005839068916E-03 3.293890073394E-01
O -4.039799523051E-01 -4.976764288236E-01 -1.698409130521E-01
O 9.625900970578E-02 -4.971623818101E-01 3.301420177002E-01
O -7.022070280010E-02 6.822398779797E-02 -6.445421038389E-02
O 4.295414177383E-01 6.918177578060E-02 4.360937353424E-01
O 4.299033936465E-01 -4.319230826999E-01 -6.406882549810E-02
O -6.989520668756E-02 -4.316351870714E-01 4.359633153954E-01
O -4.291049720934E-01 7.356675076543E-02 -4.347213525517E-01
O 7.067366032667E-02 7.365055589800E-02 6.508221829742E-02
O 7.110681191514E-02 -4.264764444507E-01 -4.346320874055E-01
O -4.288968133857E-01 -4.258565704661E-01 6.515311264007E-02
O -4.240034518327E-01 4.330100351835E-01 -6.316083454438E-02
O 7.605626786668E-02 4.330975711225E-01 4.364168988658E-01
O 7.572343627184E-02 -6.695772703538E-02 -6.365604967684E-02
O -4.238060260925E-01 -6.719984573355E-02 4.356422126543E-01
O -6.529784217688E-02 4.275344832665E-01 -4.343919934070E-01
O 4.347221191412E-01 4.280119860314E-01 6.617954083150E-02
O 4.350258510497E-01 -7.277581026001E-02 -4.350017318393E-01
O -6.578683318666E-02 -7.231537814217E-02 6.545846873696E-02
O 3.759168865308E-03 9.321661562228E-02 -1.691952611927E-01
O -4.967645165327E-01 9.453760777560E-02 3.312785548785E-01
O -4.966446035575E-01 -4.072968727391E-01 -1.690894231486E-01
O 3.957727190466E-03 -4.065736626841E-01 3.310925208866E-01
O -4.998515824662E-01 9.266257849225E-02 -3.280568892114E-01
O -3.416581761582E-04 9.348466989142E-02 1.714336526857E-01
O 8.074329214790E-05 -4.067734589282E-01 -3.282406001293E-01
O -4.996394157484E-01 -4.057080288230E-01 1.715464090693E-01
O 4.085617747312E-01 1.851695482326E-01 -4.967757376403E-01
O -9.158406725852E-02 1.847878831365E-01 2.057872689988E-03
O -9.103118646398E-02 -3.150415724233E-01 -4.976687678519E-01
O 4.086136980522E-01 -3.151220412461E-01 2.132319171443E-03
O 9.508172002944E-02 3.111702380144E-01 4.964018832258E-01
O -4.048406928671E-01 3.113602240452E-01 -2.608689012272E-03
O -4.028501682846E-01 -1.839530783203E-01 -4.980765925969E-01
O 9.474549908341E-02 -1.887586730352E-01 -3.323828813675E-03
O 1.727393392517E-01 1.596746120147E-02 -9.480883902285E-02
O -3.278657952091E-01 1.821106138686E-02 4.045619999167E-01
O -3.272080195267E-01 -4.839540545822E-01 -9.464563689278E-02
O 1.729602177833E-01 -4.838026498884E-01 4.054806428332E-01
O 3.340263654194E-01 4.825976086422E-01 -9.478725154946E-02
O -1.658664750767E-01 4.833906473253E-01 4.049774875331E-01
O -1.661110716729E-01 -1.718910649556E-02 -9.553448311051E-02
O 3.336542229388E-01 -1.612805184871E-02 4.048013756714E-01
O -1.818410703132E-01 4.071225387864E-01 4.992409793466E-01
O 3.181808050359E-01 4.071187466515E-01 1.232443238735E-04
O 3.186310012604E-01 -9.309300666454E-02 4.985062051463E-01
O -1.822477744069E-01 -9.279970129524E-02 -7.892173796422E-04
O -3.129006197196E-01 9.458813573865E-02 4.983472163908E-01
O 1.869232860845E-01 9.427151015786E-02 -2.261665278439E-03
O 1.873194381936E-01 -4.057359761183E-01 4.981761487243E-01
O -3.128017646424E-01 -4.054414238329E-01 -2.272006444736E-03
O 1.812951227637E-02 3.321766499640E-01 -4.035744141526E-01
O -4.816648519048E-01 3.330364685935E-01 9.733733536024E-02
O -4.794338667220E-01 -1.691764981328E-01 -4.041395435197E-01
O 1.754786579477E-02 -1.676910557177E-01 9.653727460277E-02
O -4.929168307396E-01 3.285309367185E-01 -9.199375412828E-02
O 6.997031650620E-03 3.289644919184E-01 4.070542507296E-01
O 6.783607691857E-03 -1.711248430205E-01 -9.281558108426E-02
O -4.971223043082E-01 -1.689550417737E-01 4.066841667719E-01
O 4.100931831277E-01 8.283283353064E-05 -3.297574197954E-01
O -9.049119363618E-02 1.323314074301E-03 1.700695162508E-01
O -8.996681786614E-02 -4.990244340573E-01 -3.294727222498E-01
O 4.101170613888E-01 -4.979804157938E-01 1.706273474264E-01
O -4.038516673820E-01 -2.868208701952E-04 -3.299076758912E-01
O 9.590960016521E-02 1.073740170514E-03 1.703723508881E-01
O 9.640735861434E-02 -4.991194961036E-01 -3.293836006711E-01
O -4.034421012095E-01 -4.981006282095E-01 1.706037548612E-01
O 5.548921154089E-02 4.513031586626E-01 -4.497767531355E-01
O -4.445269836992E-01 4.518470935166E-01 5.055857245135E-02
O -4.448797464464E-01 -4.818659480963E-02 -4.507262880548E-01
O 5.506476012323E-02 -4.860060639577E-02 5.011696565479E-02
O 4.545337243598E-01 4.475509252658E-01 -4.755628454208E-02
O -4.537537467877E-02 4.477335527178E-01 4.519781331332E-01
O -4.570055966476E-02 -5.231783199950E-02 -4.817874257143E-02
O 4.544006604738E-01 -5.109350877185E-02 4.514706518005E-01
O 4.507873012687E-01 4.915056998823E-02 -4.503759416721E-01
O -4.923825125708E-02 4.910969171530E-02 4.919224552604E-02
O -4.883972405944E-02 -4.509763157703E-01 -4.504442354586E-01
O 4.510884209516E-01 -4.505957079934E-01 4.957843674191E-02
O 5.149538162657E-02 5.248340222931E-02 -4.833773055849E-02
O -4.486402458620E-01 5.295696204333E-02 4.516741742827E-01
O -4.483759506160E-01 -4.475080894428E-01 -4.814398447897E-02
O 5.183823452403E-02 -4.474973571145E-01 4.519305547168E-01
H -4.898128318032E-01 3.654110015952E-01 -2.773623013435E-01
H 1.041620020763E-02 3.661799910033E-01 2.217013564375E-01
H 9.942532524828E-03 -1.340199245468E-01 -2.781586280168E-01
H -4.947618813562E-01 -1.323048797716E-01 2.209685168576E-01
H 1.589213470194E-02 3.676700603994E-01 -2.177271290079E-01
H -4.835310688178E-01 3.689281875950E-01 2.831926443808E-01
H -4.779302934973E-01 -1.335136721218E-01 -2.185521506584E-01
H 1.534931282345E-02 -1.320674958167E-01 2.824740846606E-01
H 7.742070741570E-03 1.343455718776E-01 -2.789943477387E-01
H -4.930053618544E-01 1.356241272864E-01 2.219601927638E-01
H -4.995657244360E-01 -3.662823357010E-01 -2.787662748946E-01
H 7.809466478388E-03 -3.654349994596E-01 2.212856642378E-01
H 4.806890344707E-01 1.330596734348E-01 -2.176735530393E-01
H -2.023636882812E-02 1.339553473110E-01 2.813346115947E-01
H -1.973864211402E-02 -3.663358694136E-01 -2.183295002238E-01
H 4.847341076375E-01 -3.653259233334E-01 2.817538762371E-01
H 2.832840005243E-01 4.856918052229E-01 -3.661875469678E-01
H -2.166564875742E-01 4.861056104096E-01 1.336588312472E-01
H -2.168396129322E-01 -1.394904136103E-02 -3.669148789217E-01
H 2.828401551709E-01 -1.266722412010E-02 1.334748308172E-01
H 2.231857184354E-01 1.610209646340E-02 -3.662635632188E-01
H -2.772956778422E-01 1.789774149704E-02 1.331955738979E-01
H -2.769585858252E-01 -4.843489472289E-01 -3.661334298507E-01
H 2.231709713273E-01 -4.828886167165E-01 1.339977447799E-01
H 2.828493561427E-01 -6.162432040788E-04 -1.347773136045E-01
H -2.178615740637E-01 1.088832501009E-03 3.647543772798E-01
H -2.171314658783E-01 -4.996674894734E-01 -1.345986641432E-01
H 2.830900452519E-01 -4.989202485692E-01 3.654853591097E-01
H 2.238884444397E-01 4.984416765465E-01 -1.345122496332E-01
H -2.758423799488E-01 -4.997312496278E-01 3.653184692871E-01
H -2.761774961449E-01 -1.654209850772E-03 -1.352021465499E-01
H 2.233841048411E-01 -1.172123510476E-03 3.652159138434E-01
H -4.939802484245E-01 2.792299028578E-01 -3.630798322715E-01
H 6.066795735772E-03 2.799955171013E-01 1.359679538541E-01
H 5.805537342391E-03 -2.203018934046E-01 -3.638318081243E-01
H -4.982684562482E-01 -2.187453880639E-01 1.355512135682E-01
H 1.211820446005E-02 2.216306987093E-01 -3.643611492118E-01
H -4.884465328117E-01 2.228821524972E-01 1.365448393519E-01
H -4.959796456214E-01 -2.794944087611E-01 -3.644314369260E-01
H 1.184436112551E-02 -2.782010034491E-01 1.358734903053E-01
H 1.269517742920E-02 2.803502231474E-01 -1.322843483734E-01
H -4.869016831524E-01 2.816080920076E-01 3.686454728556E-01
H -4.814921709104E-01 -2.205934191751E-01 -1.328169535121E-01
H 1.249171687497E-02 -2.193342537942E-01 3.678949447101E-01
H 4.841267895299E-01 2.194387682428E-01 -1.319566309556E-01
H -1.662247651663E-02 2.203323759984E-01 3.670576253151E-01
H -1.641207586216E-02 -2.798551564902E-01 -1.326613932538E-01
H 4.880712902628E-01 -2.785877890226E-01 3.672504837022E-01
H 3.701889976569E-01 4.819137803585E-01 -2.805997108651E-01
H -1.297036347734E-01 4.823474347274E-01 2.192085359717E-01
H -1.298723546748E-01 -1.725241666733E-02 -2.813774191209E-01
H 3.698082297694E-01 -1.577997764071E-02 2.190384422416E-01
H 3.692784032145E-01 -3.779245203195E-03 -2.204413139491E-01
H -1.313523602369E-01 -2.238970785525E-03 2.791381784467E-01
H -1.307016941324E-01 4.975320609075E-01 -2.202805068526E-01
H 3.695025120950E-01 4.986353787231E-01 2.797637768433E-01
H 1.364477088888E-01 1.911978267924E-02 -2.805634607823E-01
H -3.641029597132E-01 2.108880563646E-02 2.188524890300E-01
H -3.637255348604E-01 -4.816663145009E-01 -2.803924381002E-01
H 1.364355243806E-01 -4.804826561823E-01 2.197747056059E-01
H 1.372741153647E-01 -4.978165607113E-01 -2.200635630651E-01
H -3.624877177234E-01 -4.959425378028E-01 2.798192585957E-01
H -3.628605767667E-01 1.667461743424E-03 -2.206739036921E-01
H 1.367093936167E-01 2.033235234199E-03 2.796761162439E-01
H -3.944292959766E-01 4.076791288309E-01 -8.925495223569E-02
H 1.055745388903E-01 4.078817004404E-01 4.101497862491E-01
H 1.052850948169E-01 -9.224395761795E-02 -8.980218959323E-02
H -3.951877796973E-01 -9.220445687102E-02 4.081593893682E-01
H -9.013683598810E-02 3.989803037879E-01 -4.067080592513E-01
H 4.099260595013E-01 3.996092434925E-01 9.405898463878E-02
H 4.100041505600E-01 -1.015743920268E-01 -4.076991906114E-01
H -9.063201303567E-02 -1.007528458680E-01 9.326014129912E-02
H -9.879400197314E-02 9.324964747349E-02 -9.212186658792E-02
H 4.009199770767E-01 9.446779131295E-02 4.087168005377E-01
H 4.011599657234E-01 -4.070676575698E-01 -9.171108675171E-02
H -9.845653914231E-02 -4.065613495393E-01 4.083263555499E-01
H -4.039589074534E-01 1.021454243546E-01 -4.074564158658E-01
H 9.586198736543E-02 1.021806894362E-01 9.235337411191E-02
H 9.630781518497E-02 -3.979917987155E-01 -4.073246365919E-01
H -4.037649847828E-01 -3.972756924780E-01 9.242932114088E-02
H -1.593645737558E-01 -1.355363713646E-01 4.342327611283E-03
H -2.034623296397E-01 -9.368822471498E-02 -4.251720508458E-02
H -1.337002181594E-01 -3.374328878935E-01 4.961166903195E-01
H -9.258239923288E-02 -2.941447322230E-01 -4.558712249154E-01
H -4.014031506427E-01 -2.051305114877E-01 -4.562895617936E-01
H -3.601806548878E-01 -1.615015626110E-01 4.958780978489E-01
H -2.920771637963E-01 -4.042431111744E-01 -4.420590473219E-02
H -3.352917537070E-01 -3.626642097139E-01 3.695759394814E-03
H 3.411563655679E-01 -1.358731049707E-01 -4.954834529611E-01
H 2.978035440692E-01 -9.423987151218E-02 4.566007283551E-01
H 9.596557115560E-02 -2.149726642035E-01 -4.190026119586E-02
H 1.379647777203E-01 -1.672896832407E-01 1.464392199908E-03
H 2.079885081495E-01 -4.043207446600E-01 4.562179544188E-01
H 1.648837443809E-01 -3.629759653440E-01 -4.955906307242E-01
H 3.659687684122E-01 -3.375284397442E-01 -4.128096546568E-03
H 4.070515660656E-01 -2.942097526109E-01 4.393075541220E-02
H -3.616129660107E-01 3.328324126962E-01 2.035065876516E-03
H -4.037602692762E-01 2.851104160943E-01 -4.117161094598E-02
H -1.589862357241E-01 3.643657134347E-01 -4.957515888787E-01
H -2.031170010877E-01 4.063949831599E-01 4.575356834174E-01
H -9.331078158215E-02 2.056530588367E-01 4.386875522084E-02
H -1.342254065734E-01 1.624328862578E-01 -4.402234372374E-03
H -2.922911101138E-01 9.614849966332E-02 4.563496192475E-01
H -3.353472741368E-01 1.373175256478E-01 -4.952834900114E-01
H 3.659028268905E-01 1.627794681864E-01 4.970184648358E-01
H 4.071012192241E-01 2.058877704794E-01 -4.548840033949E-01
H 3.411204757047E-01 3.644290148999E-01 5.353294794119E-03
H 2.968840978627E-01 4.060828830792E-01 -4.156071089490E-02
H 9.625427459788E-02 2.850591675639E-01 4.577550601529E-01
H 1.383045088099E-01 3.326113049837E-01 -4.987726084414E-01
H 2.075374271841E-01 9.559643103039E-02 -4.424873218105E-02
H 1.644944035809E-01 1.370476310035E-01 3.936460908037E-03
ZR 3.107793223634E-03 2.418455356712E-04 -1.185742433783E-01
ZR -4.971258756352E-01 1.279350169071E-03 3.809850039803E-01
ZR -4.968085404689E-01 4.998665467752E-01 -1.180987652479E-01
ZR 3.372225494665E-03 -4.996185193674E-01 3.816177504683E-01
ZR -4.969371282895E-01 1.298447342650E-04 -3.801097346206E-01
ZR 2.691763505013E-03 5.920672297194E-04 1.203017128316E-01
ZR 3.183713392216E-03 -4.995920957634E-01 -3.795075017618E-01
ZR -4.967323388353E-01 -4.987017786524E-01 1.207450602345E-01
ZR 4.989981301835E-01 1.229099174190E-01 -4.990537542024E-01
ZR -1.057892291245E-03 1.226661624133E-01 4.186817650945E-04
ZR -6.501816891446E-04 -3.773676381776E-01 -4.992931901237E-01
ZR 4.991377772394E-01 -3.771892205270E-01 5.758750935505E-04
ZR 7.305259579775E-03 3.781203598850E-01 -4.982663163868E-01
ZR -4.926199694845E-01 3.783121614115E-01 2.523718963937E-03
ZR -4.931641089852E-01 -1.215078251073E-01 -4.996779414674E-01
ZR 6.921246039019E-03 -1.218592069814E-01 1.792736286952E-03
ZR -3.749382259050E-01 4.304665707060E-03 -4.998069545537E-01
ZR 1.249894945951E-01 3.921511455616E-03 8.147612084339E-04
ZR 1.253809428550E-01 -4.961123548310E-01 -4.989882327727E-01
ZR -3.746947663359E-01 -4.958104340936E-01 1.059551204985E-03
ZR 3.808125080146E-01 -2.900132884526E-03 -4.996404882184E-01
ZR -1.192800455241E-01 -3.188582766300E-03 2.600734830506E-04
ZR -1.189097607074E-01 4.967790387608E-01 -4.993684297833E-01
ZR 3.810272272627E-01 4.968316570296E-01 8.954758339716E-04
CL -9.165654586462E-02 2.954905271106E-01 -4.926716006976E-01
CL 4.085057638856E-01 2.956282198839E-01 8.618387912148E-03
CL 4.084617254277E-01 -2.049369641073E-01 -4.895025267927E-01
CL -9.208448953328E-02 -2.044252648867E-01 7.199095303091E-03
CL -4.026088808585E-01 2.062889398838E-01 -4.882758463450E-01
CL 9.736594303285E-02 2.060826149840E-01 1.073770104961E-02
CL 9.772212984554E-02 -2.939417427426E-01 -4.887820862223E-01
CL -4.024907529814E-01 -2.936478882178E-01 9.683966326742E-03
CL 2.063080076151E-01 4.027146265413E-01 4.933712482403E-01
CL -2.936900541720E-01 4.029897723737E-01 -6.381650819836E-03
CL -2.913764550113E-01 -9.430847008577E-02 4.900317026322E-01
CL 2.059713758848E-01 -9.725167100959E-02 -6.685849564522E-03
CL 2.969993167998E-01 9.576733006158E-02 4.901431150367E-01
CL -2.030895974420E-01 9.548081624013E-02 -1.168883016070E-02
CL -2.024911477355E-01 -4.044906824286E-01 4.900500727762E-01
CL 2.971475797385E-01 -4.045629835439E-01 -1.110036312121E-02
# Energy: -1.0562990322119E+05


