data_foo_86
_symmetry_space_group_name_H-M 'P 1'
_space_group_IT_number         1
_cell_length_a                 20.41296911
_cell_length_b                 21.10762192
_cell_length_c                 21.10981674
_cell_angle_alpha              90.087310
_cell_angle_beta               90.019543
_cell_angle_gamma              90.028428
loop_
_atom_site_type_symbol
_atom_site_fract_x
_atom_site_fract_y
_atom_site_fract_z
C -2.696299037580E-01 4.940432227956E-01 3.133918195007E-01
C 2.303438578276E-01 -5.921116674779E-03 3.134430976673E-01
C -2.696857429250E-01 -5.984283669752E-03 -1.865399339776E-01
C 2.303038795152E-01 4.940709466040E-01 -1.865630017228E-01
C -2.285049097834E-01 5.051925867005E-03 3.138314178621E-01
C 2.714961581412E-01 -4.950129583911E-01 3.137803204399E-01
C -2.285061221142E-01 -4.949646080501E-01 -1.862233762827E-01
C 2.714231510391E-01 5.026749421721E-03 -1.862148446430E-01
C -2.695593496468E-01 8.053208040839E-03 1.877845830319E-01
C 2.304250054520E-01 -4.921130659780E-01 1.877356467563E-01
C -2.695594233804E-01 -4.919271844124E-01 -3.122683519374E-01
C 2.303774414264E-01 7.908574185296E-03 -3.122655054115E-01
C -2.284240059744E-01 4.962807818291E-01 1.873876591587E-01
C 2.715432609601E-01 -3.749023265852E-03 1.874363754310E-01
C -2.284828891929E-01 -3.713809440525E-03 -3.125415946508E-01
C 2.715104211443E-01 4.962474336878E-01 -3.125665080807E-01
C -3.163276013669E-01 2.654450240564E-01 4.984138043555E-01
C 1.837538374774E-01 -2.346192129405E-01 4.983471773676E-01
C -3.163155495991E-01 -2.346292681700E-01 -1.570502883232E-03
C 1.837246355337E-01 2.653190470982E-01 -1.684953491810E-03
C -3.162623743164E-01 2.358037035479E-01 2.515415491681E-03
C 1.837072306285E-01 -2.642135333746E-01 2.646382155837E-03
C -3.162505608234E-01 -2.641194455246E-01 -4.974461136646E-01
C 1.837090222046E-01 2.358325552579E-01 -4.974176693067E-01
C -1.835713460365E-01 2.655280809400E-01 9.920255601728E-03
C 3.164065389731E-01 -2.344842789147E-01 9.895921208320E-03
C -1.835576564179E-01 -2.343950590664E-01 -4.900829467095E-01
C 3.163978276610E-01 2.655723815296E-01 -4.900272861368E-01
C -1.834366895471E-01 2.366918221405E-01 4.915929293615E-01
C 3.166464115016E-01 -2.633606060230E-01 4.915291695042E-01
C -1.834264590035E-01 -2.633830551526E-01 -8.425884632782E-03
C 3.166183755624E-01 2.365579685463E-01 -8.419153167668E-03
C -3.154330845186E-01 4.916368088080E-01 2.649447648171E-01
C 1.845362160371E-01 -8.332336782062E-03 2.649992237406E-01
C -3.154911279796E-01 -8.373356042637E-03 -2.349865649625E-01
C 1.844973459204E-01 4.916887912434E-01 -2.350090519441E-01
C -3.154306286367E-01 9.966945101635E-03 2.361625102442E-01
C 1.845592015876E-01 -4.901957179892E-01 2.361186563212E-01
C -3.154319856044E-01 -4.900402715096E-01 -2.638905037811E-01
C 1.844977258648E-01 9.790311346504E-03 -2.638919163040E-01
C -1.826330425205E-01 3.142074195048E-03 2.654521924492E-01
C 3.173626298710E-01 -4.969215135131E-01 2.653964602710E-01
C -1.826321818918E-01 -4.968430562814E-01 -2.346024488992E-01
C 3.173021431926E-01 3.154617632235E-03 -2.345884887088E-01
C -1.826198435079E-01 4.986986892165E-01 2.358351675914E-01
C 3.173517873785E-01 -1.330661741900E-03 2.358803894481E-01
C -1.826773977958E-01 -1.315275051023E-03 -2.640954982664E-01
C 3.173170790700E-01 4.986426442443E-01 -2.641213145009E-01
C -2.706718599266E-01 3.140324502508E-01 4.962291724990E-01
C 2.294036597040E-01 -1.860281102134E-01 4.961733294644E-01
C -2.706603000885E-01 -1.860421765318E-01 -3.740951165313E-03
C 2.293811105897E-01 3.139048612249E-01 -3.850998363885E-03
C -2.295946999473E-01 3.137524550003E-01 7.608025492361E-03
C 2.703803608238E-01 -1.862612489489E-01 7.605587345817E-03
C -2.295838462418E-01 -1.861711565808E-01 -4.923649552489E-01
C 2.703665206064E-01 3.137903988727E-01 -4.923220349119E-01
C -2.702402281271E-01 1.875775581738E-01 4.817541032669E-03
C 2.297321446056E-01 -3.124380213706E-01 4.928106097979E-03
C -2.702265864943E-01 -3.123448427604E-01 -4.951682627144E-01
C 2.297398258001E-01 1.876122638861E-01 -4.951393449409E-01
C -2.290925607962E-01 1.881051171418E-01 4.937535798159E-01
C 2.709948618583E-01 -3.119523559558E-01 4.936889367194E-01
C -2.290828329749E-01 -3.119697167773E-01 -6.275732225357E-03
C 2.709609669608E-01 1.879724500822E-01 -6.267902986628E-03
C -1.532363265894E-01 7.318807887802E-04 1.507744221137E-01
C 3.467503521803E-01 -4.993659936444E-01 1.507180131095E-01
C -1.532370476492E-01 -4.992025853583E-01 -3.492844189128E-01
C 3.467205848137E-01 7.240903319283E-04 -3.492599747257E-01
C -3.449606069982E-01 4.929348667676E-01 1.502928953001E-01
C 1.550096184514E-01 -7.057047963422E-03 1.503409353583E-01
C -3.450094390103E-01 -7.018692307030E-03 -3.496444348322E-01
C 1.549804100616E-01 4.929936285053E-01 -3.496687302820E-01
C -1.533620636359E-01 -4.980093292717E-01 3.505289340853E-01
C 3.466191426779E-01 1.987515609277E-03 3.505738710881E-01
C -1.534106884735E-01 1.932545629435E-03 -1.494058312121E-01
C 3.465860567275E-01 -4.980654903506E-01 -1.494344088344E-01
C -3.450706991834E-01 7.996369864753E-03 3.507769842338E-01
C 1.549335715724E-01 -4.921023514563E-01 3.507396141017E-01
C -3.450736793720E-01 -4.920506062089E-01 -1.492756423221E-01
C 1.548648076164E-01 7.869166850692E-03 -1.492654398416E-01
C -4.885425426705E-01 1.553167549529E-01 3.596939175246E-01
C 1.159041232829E-02 -3.447026902420E-01 3.596414601744E-01
C -4.885688849754E-01 -3.447550905190E-01 -1.403433635288E-01
C 1.139468960634E-02 1.552198826632E-01 -1.403520961603E-01
C -4.936924786571E-01 3.461408014809E-01 1.423155944034E-01
C 6.228039200211E-03 -1.538235645875E-01 1.424015554695E-01
C -4.937467685522E-01 -1.537795014926E-01 -3.576274599573E-01
C 6.229409198034E-03 3.462595557987E-01 -3.576186616571E-01
C -1.536158457199E-01 1.509201711252E-01 8.407666719617E-03
C 3.463575222290E-01 -3.490973362435E-01 8.416188913532E-03
C -1.536013711093E-01 -3.490035563687E-01 -4.916325239365E-01
C 3.463711399012E-01 1.509698099932E-01 -4.915656408236E-01
C -1.542020638204E-01 3.513845841785E-01 4.932015926812E-01
C 3.458611528679E-01 -1.486604911542E-01 4.931715116372E-01
C -1.541939373334E-01 -1.486920151073E-01 -6.764443260365E-03
C 3.458481683621E-01 3.512499253009E-01 -6.835837656238E-03
C -3.452985912631E-01 1.507112294442E-01 -4.985742143281E-01
C 1.547772425584E-01 -3.493416700273E-01 -4.986428219755E-01
C -3.452918490259E-01 -3.493574985219E-01 1.393070986850E-03
C 1.547436903946E-01 1.505971407592E-01 1.358321322744E-03
C -3.459657187967E-01 3.504456294985E-01 -2.346608897459E-04
C 1.540019072732E-01 -1.495712715766E-01 -1.479536274914E-04
C -3.459618838211E-01 -1.494775954937E-01 4.998389897765E-01
C 1.539938315685E-01 3.504769164188E-01 4.998535410376E-01
C -2.031253341000E-01 4.979271042564E-01 2.989137268238E-01
C 2.968502589592E-01 -2.070166247794E-03 2.989606819683E-01
C -2.031814115998E-01 -2.103998631087E-03 -2.010177823876E-01
C 2.968116700813E-01 4.978988759388E-01 -2.010429087120E-01
C -2.950478601891E-01 8.164478027264E-03 2.992683345710E-01
C 2.049499535291E-01 -4.919464009479E-01 2.992238913806E-01
C -2.950499280763E-01 -4.918577373890E-01 -2.007847719850E-01
C 2.048768927215E-01 8.049376762115E-03 -2.007830992696E-01
C -2.030539070406E-01 4.322323465422E-03 2.023446591536E-01
C 2.969336620337E-01 -4.957954997121E-01 2.022900419789E-01
C -2.030527837762E-01 -4.956510099166E-01 -2.977099157403E-01
C 2.968867520149E-01 4.271518082934E-03 -2.976990070961E-01
C -2.949713742623E-01 4.930683056305E-01 2.018642057975E-01
C 2.049944641927E-01 -6.928172564075E-03 2.019165083439E-01
C -2.950302008621E-01 -6.922465428103E-03 -2.980660245769E-01
C 2.049600191410E-01 4.930964272379E-01 -2.980895503944E-01
C -2.956333974899E-01 2.024159058905E-01 4.975197840025E-01
C 2.044536255969E-01 -2.976467273166E-01 4.974514924698E-01
C -2.956215858559E-01 -2.976575964471E-01 -2.493060382634E-03
C 2.044198747792E-01 2.022893048375E-01 -2.544237040994E-03
C -2.960491768593E-01 2.989837534045E-01 3.592312006260E-03
C 2.039214711731E-01 -2.010320133407E-01 3.669525816899E-03
C -2.960398373246E-01 -2.009387561732E-01 -4.963556491211E-01
C 2.039132025342E-01 2.990150815133E-01 -4.963303628834E-01
C -2.037468455873E-01 2.023435331156E-01 8.234131833247E-03
C 2.962297535220E-01 -2.976701516158E-01 8.264615547265E-03
C -2.037312558610E-01 -2.975794924885E-01 -4.917807588908E-01
C 2.962318587110E-01 2.023854812557E-01 -4.917267902800E-01
C -2.040874991510E-01 2.997220697426E-01 4.931481308847E-01
C 2.959890493185E-01 -2.003330559751E-01 4.930961498860E-01
C -2.040772056882E-01 -2.003540685502E-01 -6.836946816508E-03
C 2.959652747143E-01 2.995885156086E-01 -6.892610848026E-03
C -1.190138610403E-02 3.597196088115E-01 3.463887476236E-01
C 4.880018056861E-01 3.597456277467E-01 -1.537018908438E-01
C 4.882407164023E-01 -1.402394931272E-01 3.463613552791E-01
C -1.200242216234E-02 -1.403310811169E-01 -1.535691408864E-01
C -4.278490503608E-03 1.427202302266E-01 1.557068569379E-01
C 4.956793433060E-01 1.427419659670E-01 -3.442371852528E-01
C 4.956305476109E-01 -3.573523128714E-01 1.557197211059E-01
C -4.258628489369E-03 -3.571899474988E-01 -3.443320069075E-01
C -3.350074861207E-02 -1.858557887247E-01 -2.037035375063E-01
C -1.071408376009E-02 -3.092256566216E-01 -2.925449016232E-01
C -3.327398644584E-02 3.141999642067E-01 2.962044558950E-01
C -1.074404248293E-02 1.906869718890E-01 2.074893667677E-01
C 4.664173027925E-01 3.143124403705E-01 -2.038833852620E-01
C 4.891899272228E-01 1.906886006458E-01 -2.924374515825E-01
C 4.671052824790E-01 -1.858161849662E-01 2.961358229466E-01
C 4.891324808334E-01 -3.094059970807E-01 2.075177515885E-01
C -4.699744354005E-01 -2.940696346208E-01 -1.862966467649E-01
C -4.867794001545E-01 -2.054461370267E-01 -3.097322201709E-01
C -4.699433313929E-01 2.060050799249E-01 3.137466445196E-01
C -4.866954211963E-01 2.944684450643E-01 1.901983041587E-01
C 2.989259232070E-02 2.059105936027E-01 -1.863315312668E-01
C 1.322519514339E-02 2.946021518245E-01 -3.097195128326E-01
C 3.038036296430E-02 -2.940272892208E-01 3.137488260292E-01
C 1.317762490647E-02 -2.054826737169E-01 1.903050714339E-01
O -1.732895773615E-01 -4.986818366221E-01 4.071736152255E-01
O 3.266959454733E-01 1.301299700944E-03 4.072202138168E-01
O -1.733287677936E-01 1.234378095747E-03 -9.275804675874E-02
O 3.266705320993E-01 -4.987774336670E-01 -9.278492303620E-02
O -3.252512606940E-01 5.514351680456E-03 4.074352099761E-01
O 1.747574502835E-01 -4.945825492145E-01 4.073964339584E-01
O -3.252507269056E-01 -4.945620979547E-01 -9.261904577530E-02
O 1.747019222373E-01 5.381150359365E-03 -9.261554594882E-02
O -4.968224888479E-01 4.020729868953E-01 1.633459944113E-01
O 3.142036368685E-03 -9.788296446985E-02 1.634151700277E-01
O -4.968609556502E-01 -9.784450357681E-02 -3.365999380118E-01
O 3.121837752553E-03 4.022004317329E-01 -3.366112408846E-01
O 4.962177734470E-01 -8.331151275202E-02 3.299780266050E-01
O -3.809141565459E-03 4.166263059943E-01 3.299764158316E-01
O 4.961703529998E-01 4.166547108408E-01 -1.700844601143E-01
O -3.898282301151E-03 -8.343211267167E-02 -1.699956367637E-01
O 4.985075900979E-01 -4.148438913339E-01 1.715007854798E-01
O -1.445420127204E-03 8.523347128922E-02 1.715097114563E-01
O 4.985194962014E-01 8.524937234011E-02 -3.284537886633E-01
O -1.461209067758E-03 -4.146784553330E-01 -3.285275415471E-01
O -4.949178478996E-01 9.983115674736E-02 3.382404469961E-01
O 5.153040074346E-03 -4.001754041020E-01 3.381816316467E-01
O -4.949530805953E-01 -4.002400483629E-01 -1.618007838224E-01
O 5.044342942959E-03 9.972507327608E-02 -1.617873433241E-01
O -4.043101040831E-01 1.679224471388E-01 -4.940171972989E-01
O 9.577536112340E-02 -3.321033408490E-01 -4.941093153057E-01
O -4.042981766646E-01 -3.321356658553E-01 5.944549013369E-03
O 9.574259849981E-02 1.678335200182E-01 5.905091231729E-03
O -4.050242366633E-01 3.331946701330E-01 -4.650356628201E-03
O 9.494136198407E-02 -1.668171648965E-01 -4.518987140006E-03
O -4.050196329355E-01 -1.667301621211E-01 4.954468644678E-01
O 9.493311988113E-02 3.332326112374E-01 4.954609049785E-01
O -4.041287937264E-01 4.916604124306E-01 1.675543501446E-01
O 9.583432218195E-02 -8.306285524198E-03 1.675927539981E-01
O -4.041859208702E-01 -8.267229194624E-03 -3.323996466439E-01
O 9.580315493760E-02 4.917697824282E-01 -3.324237890822E-01
O -9.417788715667E-02 -3.438596139860E-03 1.680012925904E-01
O 4.058092563986E-01 4.964625047401E-01 1.679428540379E-01
O -9.417142876534E-02 4.966456828302E-01 -3.320647294262E-01
O 4.057772692722E-01 -3.420772609271E-03 -3.320224706900E-01
O -1.740219234538E-01 4.080346938904E-01 4.956746106816E-01
O 3.260262663010E-01 -9.201722492976E-02 4.956662612836E-01
O -1.740158618071E-01 -9.204374600584E-02 -4.273509426626E-03
O 3.260236720078E-01 4.078993376251E-01 -4.348431360376E-03
O -1.734274536919E-01 9.424663935374E-02 5.715547226966E-03
O 3.265442967010E-01 -4.057662413391E-01 5.710136997185E-03
O -1.734147407984E-01 -4.056766814906E-01 -4.943423218329E-01
O 3.265713136168E-01 9.429367251175E-02 -4.942790506982E-01
O -6.811011280678E-02 -6.721694316083E-02 6.352435145216E-02
O 4.319161030904E-01 4.327313421199E-01 6.345459560644E-02
O -6.812196624820E-02 4.328579915497E-01 -4.365202385354E-01
O 4.318973897526E-01 -6.717664786704E-02 -4.365039649286E-01
O -4.307244414353E-01 -4.364653579703E-01 6.897075382783E-02
O 6.928922660804E-02 6.354467242935E-02 6.898528729604E-02
O -4.307239462808E-01 6.361297858606E-02 -4.309799760222E-01
O 6.928994343399E-02 -4.363836923099E-01 -4.310398084511E-01
O -6.771476114802E-02 -4.305526829408E-01 4.378299925770E-01
O 4.322610205927E-01 6.945419420081E-02 4.378898901575E-01
O -6.774492183172E-02 6.937470205751E-02 -6.211723558945E-02
O 4.322453774747E-01 -4.306291259576E-01 -6.213475211645E-02
O -4.312709917253E-01 -6.220509899628E-02 4.321956103536E-01
O 6.870811168702E-02 4.377448335752E-01 4.321825273906E-01
O -4.312803004342E-01 4.377215733894E-01 -6.786577791554E-02
O 6.868889154749E-02 -6.231930699331E-02 -6.780516557965E-02
O -1.731918741915E-01 1.086873537496E-03 9.411706790461E-02
O 3.267973048768E-01 -4.989970020688E-01 9.405948135790E-02
O -1.731951469574E-01 -4.988316069044E-01 -4.059383955453E-01
O 3.267791155740E-01 1.090563104783E-03 -4.059222066589E-01
O -3.251407338110E-01 4.956149756430E-01 9.366058243916E-02
O 1.748363444019E-01 -4.397873182901E-03 9.371200287150E-02
O -3.251732391090E-01 -4.326904706139E-03 -4.062694838550E-01
O 1.748186221610E-01 4.956590219588E-01 -4.062937783524E-01
O -9.443403930153E-02 1.682050816052E-01 9.795424190142E-03
O 4.055425127051E-01 -3.318123119840E-01 9.789553138995E-03
O -9.441896694751E-02 -3.317217909982E-01 -4.902529096574E-01
O 4.055506206154E-01 1.682652463543E-01 -4.901757864025E-01
O -9.503344709189E-02 3.341259380221E-01 4.921909605068E-01
O 4.050353883176E-01 -1.659030760662E-01 4.921677892967E-01
O -9.502511479049E-02 -1.659471103324E-01 -7.769217079770E-03
O 4.050149207109E-01 3.339951315492E-01 -7.847114024044E-03
O -4.956714847500E-01 1.716063079177E-01 4.167894121739E-01
O 4.373574057119E-03 -3.284012180929E-01 4.167291215222E-01
O -4.956909921960E-01 -3.284719451809E-01 -8.324608246169E-02
O 4.314020899006E-03 1.715167480825E-01 -8.325276791300E-02
O 4.955926468893E-01 -1.617141035020E-01 4.016618959928E-01
O -4.482774475851E-03 3.382440246658E-01 4.016798793142E-01
O 4.955021384044E-01 3.382146478885E-01 -9.844564355328E-02
O -4.502729554324E-03 -1.618092918696E-01 -9.828668268159E-02
O 4.981555107005E-01 -3.364031146128E-01 9.980192930589E-02
O -1.779489036579E-03 1.636470830808E-01 9.977856250378E-02
O 4.981770971390E-01 1.636873744966E-01 -4.001578627386E-01
O -1.776097825855E-03 -3.362691822221E-01 -4.002627531361E-01
O -4.968877219507E-01 3.302154072566E-01 8.484085236546E-02
O 3.022252946168E-03 -1.697668366032E-01 8.493216107158E-02
O -4.969379280638E-01 -1.697096388246E-01 -4.151007706687E-01
O 3.013567982126E-03 3.303102064346E-01 -4.150870817304E-01
O -4.042539615552E-01 9.013818980038E-03 3.335021588935E-01
O 9.574894058590E-02 -4.910723098499E-01 3.334679719202E-01
O -4.042570188243E-01 -4.910352806728E-01 -1.665488960502E-01
O 9.567137412659E-02 8.874778564704E-03 -1.665221801034E-01
O -9.434450917139E-02 -4.933661886298E-01 3.333223796275E-01
O 4.056341010795E-01 6.652447512454E-03 3.333677483020E-01
O -9.439704819381E-02 6.576491308950E-03 -1.666189350722E-01
O 4.055971054582E-01 -4.934027600642E-01 -1.666476126874E-01
O -3.260435354765E-01 4.071192656140E-01 3.353134000188E-04
O 1.739364575381E-01 -9.289844068920E-02 3.754876090729E-04
O -3.260354609308E-01 -9.280358162324E-02 -4.996187252798E-01
O 1.739275324894E-01 4.071481735704E-01 -4.996033306929E-01
O -3.253554616572E-01 -4.060062424035E-01 7.843469694491E-04
O 1.746692511982E-01 9.394387807282E-02 7.873891608722E-04
O -3.253562550797E-01 9.406583195029E-02 -4.991634032357E-01
O 1.746983980809E-01 -4.059961122951E-01 -4.992158579598E-01
O -4.483326934823E-01 5.146858393116E-02 4.542930717199E-01
O 5.168423393047E-02 -4.485647825259E-01 4.542396250257E-01
O -4.483397445348E-01 -4.486069590764E-01 -4.575192082793E-02
O 5.166477595134E-02 5.137035644790E-02 -4.573489061335E-02
O -5.066756884474E-02 4.545583257276E-01 4.499088580126E-01
O 4.493493589943E-01 -4.542948260359E-02 4.499346987954E-01
O -5.067540726980E-02 -4.550482199278E-02 -5.004672581249E-02
O 4.493423032662E-01 4.544885278818E-01 -5.010685910512E-02
O -4.486073336575E-01 4.501755552654E-01 4.687393928324E-02
O 5.137580468406E-02 -4.982187534703E-02 4.693495899251E-02
O -4.486177918145E-01 -4.974928584330E-02 -4.530677957025E-01
O 5.136378504083E-02 4.502485095073E-01 -4.530878346253E-01
O -5.024217691139E-02 4.733246834454E-02 5.128824485605E-02
O 4.497389807163E-01 -4.527050832554E-01 5.126075705488E-02
O -5.024297209359E-02 -4.525934057204E-01 -4.487641090843E-01
O 4.497464872895E-01 4.738357966906E-02 -4.487069125000E-01
H -2.843706864094E-01 4.932832871837E-01 3.628795427247E-01
H 2.156040178121E-01 -6.647530520006E-03 3.629316356767E-01
H -2.844259107380E-01 -6.754259554114E-03 -1.370527156712E-01
H 2.155622221110E-01 4.933428389080E-01 -1.370752441768E-01
H -2.138161822954E-01 3.796572294630E-03 3.633323552388E-01
H 2.861918279270E-01 -4.962390577295E-01 3.632801947579E-01
H -2.138170966853E-01 -4.962490813843E-01 -1.367234346117E-01
H 2.861082118490E-01 3.807415346759E-03 -1.367120360907E-01
H -2.842500659535E-01 9.120716062602E-03 1.382802726439E-01
H 2.157267606398E-01 -4.910743027992E-01 1.382328119727E-01
H -2.842504700613E-01 -4.908347441817E-01 -3.617718095866E-01
H 2.156898532833E-01 8.943606695925E-03 -3.617713770918E-01
H -2.136874086204E-01 4.972607634395E-01 1.379026714921E-01
H 2.862773211579E-01 -2.792372198654E-03 1.379499340592E-01
H -2.137483076634E-01 -2.712424372648E-03 -3.620264377361E-01
H 2.862481415731E-01 4.971947655755E-01 -3.620515436602E-01
H -3.685388718151E-01 2.751908722062E-01 -4.988465674814E-01
H 1.315407995914E-01 -2.248800530063E-01 -4.989229274280E-01
H -3.685271710809E-01 -2.248850890030E-01 1.166124200493E-03
H 1.315112916690E-01 2.750649206882E-01 1.010861415651E-03
H -3.683850452457E-01 2.256184408404E-01 -4.177807829229E-04
H 1.315805787394E-01 -2.743999995747E-01 -2.201383735335E-04
H -3.683743811723E-01 -2.743049564773E-01 4.996368309706E-01
H 1.315865492675E-01 2.256404017112E-01 4.996634866075E-01
H -1.314369497180E-01 2.757174997616E-01 1.266530790133E-02
H 3.685438602678E-01 -2.242918492829E-01 1.257445136134E-02
H -1.314226937804E-01 -2.242037887717E-01 -4.873578438042E-01
H 3.685304683724E-01 2.757698895073E-01 -4.872849520804E-01
H -1.312164727573E-01 2.269399206177E-01 4.890856154206E-01
H 3.688674295104E-01 -2.731084122728E-01 4.890196249143E-01
H -1.312069851390E-01 -2.731341721182E-01 -1.094621040642E-02
H 3.688399403913E-01 2.268061837231E-01 -1.089836216351E-02
H -3.676211544732E-01 4.890601246894E-01 2.748580240602E-01
H 1.323483183954E-01 -1.089348375655E-02 2.749182993316E-01
H -3.676791273539E-01 -1.094507277310E-02 -2.250728546543E-01
H 1.323075119059E-01 4.891498008911E-01 -2.250942579851E-01
H -3.676083684098E-01 1.250688772588E-02 2.261648935314E-01
H 1.323788222642E-01 -4.876973943549E-01 2.261255307185E-01
H -3.676105838192E-01 -4.875181023912E-01 -2.738886734912E-01
H 1.323176128282E-01 1.225338457648E-02 -2.738973216409E-01
H -1.304632638396E-01 4.313475323065E-04 2.754435973631E-01
H 3.695360019672E-01 -4.995819072414E-01 2.753831429326E-01
H -1.304613207217E-01 -4.995297312713E-01 -2.246091834238E-01
H 3.694751677913E-01 5.305250716926E-04 -2.245908515250E-01
H -1.304432779535E-01 -4.984741541662E-01 2.259284169133E-01
H 3.695286763850E-01 1.476448022464E-03 2.259689457030E-01
H -1.305005568925E-01 1.507461902622E-03 -2.740012256692E-01
H 3.694957803704E-01 -4.985713214239E-01 -2.740280712271E-01
H -2.855487716480E-01 3.634834387521E-01 4.972981737951E-01
H 2.145238063679E-01 -1.365786918635E-01 4.972611140366E-01
H -2.855338048424E-01 -1.365912655691E-01 -2.635842567845E-03
H 2.145074893492E-01 3.633572574810E-01 -2.797578001611E-03
H -2.150586949371E-01 3.633110367528E-01 8.602205458818E-03
H 2.849175569668E-01 -1.367017897040E-01 8.560526963771E-03
H -2.150472873583E-01 -1.366126346244E-01 -4.913637042576E-01
H 2.848950349585E-01 3.633507074944E-01 -4.913169924418E-01
H -2.847719851924E-01 1.380213232489E-01 3.628118882344E-03
H 2.151999581867E-01 -3.619952706044E-01 3.775749015542E-03
H -2.847594364034E-01 -3.619006275508E-01 -4.963580523574E-01
H 2.152153700136E-01 1.380543336860E-01 -4.963421774846E-01
H -2.142094087444E-01 1.386534357387E-01 4.928943124786E-01
H 2.858836449114E-01 -3.614024115971E-01 4.928261933007E-01
H -2.142018978865E-01 -3.614214893258E-01 -7.165449581930E-03
H 2.858424274640E-01 1.385193881377E-01 -7.103875408895E-03
H -9.358994637885E-02 -4.028424044398E-01 4.116646294924E-01
H 4.063574232569E-01 9.715518161466E-02 4.117411447806E-01
H -9.364194335393E-02 9.707602946455E-02 -8.827153135769E-02
H 4.063537847846E-01 -4.029190019059E-01 -8.828498853726E-02
H -4.055392724815E-01 -8.841495512945E-02 4.043365664938E-01
H 9.441040562652E-02 4.115161470187E-01 4.043154200134E-01
H -4.055874684581E-01 4.115054873377E-01 -9.575334938081E-02
H 9.439627093057E-02 -8.855523963785E-02 -9.566123124256E-02
H -9.477279827573E-02 -9.453951501355E-02 8.935558317353E-02
H 4.052658797265E-01 4.053873410762E-01 8.927534966756E-02
H -9.477630934101E-02 4.055187743172E-01 -4.106987197034E-01
H 4.052407977745E-01 -9.451884372329E-02 -4.106874463656E-01
H -4.039812947219E-01 -4.105926942588E-01 9.627417245602E-02
H 9.607236957140E-02 8.940452889530E-02 9.626587702207E-02
H -4.039702981873E-01 8.947520830058E-02 -4.036763049517E-01
H 9.606847057331E-02 -4.105247464127E-01 -4.037556715685E-01
H -2.064919105452E-02 -2.342442784902E-01 -1.905856246899E-01
H -1.286564247795E-02 -1.728036899416E-01 -2.496123350314E-01
H -8.702039678317E-02 -1.826681842330E-01 -2.074781875179E-01
H 2.588042292678E-02 -2.719234400937E-01 -2.990590204815E-01
H -5.391520159016E-03 -3.314617279037E-01 -2.461821727444E-01
H -5.902600125475E-02 -2.868945373287E-01 -2.961370257965E-01
H -2.082189828799E-02 2.657656981607E-01 3.095160459861E-01
H -1.217437645821E-02 3.270440534174E-01 2.504311945769E-01
H -8.673550457814E-02 3.177161464858E-01 2.919869536277E-01
H 2.627186176397E-02 2.276580161706E-01 2.012878369136E-01
H -5.981262533830E-03 1.683742539155E-01 2.538719329552E-01
H -5.879448407898E-02 2.134705197494E-01 2.035295884554E-01
H 4.787153705635E-01 2.658340942579E-01 -1.906025334435E-01
H 4.875096809886E-01 3.270998831002E-01 -2.496764462462E-01
H 4.129644616626E-01 3.180079145917E-01 -2.080478275393E-01
H -4.738841210436E-01 2.277380533888E-01 -2.986747649659E-01
H 4.940532390354E-01 1.683760789892E-01 -2.460640835544E-01
H 4.410806997923E-01 2.133718359936E-01 -2.963328446397E-01
H 4.799408094932E-01 -2.341771464267E-01 3.093682763966E-01
H 4.880256552229E-01 -1.727696295244E-01 2.503439829140E-01
H 4.136097980840E-01 -1.826872961811E-01 2.920303296654E-01
H -4.735518292762E-01 -2.726698825399E-01 2.015776737848E-01
H 4.934697167964E-01 -3.317967042579E-01 2.539006130733E-01
H 4.412760721715E-01 -2.862949193049E-01 2.032937152157E-01
H -4.833883866617E-01 -3.079150507364E-01 -2.343886036990E-01
H -4.165959083869E-01 -2.882475613882E-01 -1.841833977627E-01
H -4.921895374910E-01 -2.489112472508E-01 -1.728967122904E-01
H -4.433368325299E-01 -1.963735329008E-01 -2.806656111206E-01
H -4.830616334555E-01 -2.515716880763E-01 -3.328745473431E-01
H 4.707914657677E-01 -2.044791463004E-01 -2.780071941393E-01
H -4.832137562830E-01 1.921026575894E-01 2.656323544795E-01
H -4.165822422953E-01 2.119433423528E-01 3.159862273666E-01
H -4.922895101614E-01 2.511275193718E-01 3.270681847079E-01
H -4.432704505620E-01 3.035757523335E-01 2.192810523117E-01
H -4.829192876390E-01 2.483539013495E-01 1.670442255568E-01
H 4.708674089654E-01 2.953890199285E-01 2.219113296264E-01
H 1.647321199312E-02 1.920294627604E-01 -2.344141368606E-01
H 8.326477211779E-02 2.118068631606E-01 -1.842440034121E-01
H 7.620722271927E-03 2.510436460059E-01 -1.729337979636E-01
H 5.665302371696E-02 3.037187011717E-01 -2.806402924934E-01
H 1.700482391204E-02 2.484826559142E-01 -3.328635554621E-01
H -2.921038360624E-02 2.955321168158E-01 -2.780035620641E-01
H 1.741563880234E-02 -3.079753122834E-01 2.655723071018E-01
H 8.371503227879E-02 -2.879963667046E-01 3.162990947090E-01
H 7.886476017312E-03 -2.489292548595E-01 3.269187392994E-01
H 5.666326491407E-02 -1.964469063228E-01 2.193204823117E-01
H 1.681812073928E-02 -2.516180111116E-01 1.671741484813E-01
H -2.921167909751E-02 -2.044613956007E-01 2.220724075704E-01
ZR -1.222196715093E-01 1.140900432871E-03 6.506957761236E-04
ZR 3.777821292389E-01 -4.989050056584E-01 6.056022669063E-04
ZR -1.222131153303E-01 -4.987795977351E-01 -4.994049167531E-01
ZR 3.777878214999E-01 1.192883774505E-03 -4.993651821113E-01
ZR -3.766976513723E-01 -4.994321234530E-01 4.813670245898E-04
ZR 1.232846688055E-01 5.370040297799E-04 5.166909261421E-04
ZR -3.767085029931E-01 6.384196780145E-04 -4.994611797523E-01
ZR 1.232914096822E-01 -4.993991583065E-01 -4.994932650162E-01
ZR -4.992286783187E-01 4.956963328715E-01 1.181273465383E-01
ZR 7.797192390247E-04 -4.260931831938E-03 1.181767294492E-01
ZR -4.992397671145E-01 -4.218454275654E-03 -3.818230145822E-01
ZR 7.521430558927E-04 4.958209234001E-01 -3.818528147533E-01
ZR -4.993101190035E-01 6.081215128593E-03 3.831941719054E-01
ZR 6.983704001766E-04 -4.939676291175E-01 3.831624540573E-01
ZR -4.993199121774E-01 -4.939846428044E-01 -1.168496518051E-01
ZR 6.737144156868E-04 5.981459729971E-03 -1.168155891332E-01
ZR -4.994474636815E-01 -3.816295580694E-01 6.058039041349E-03
ZR 5.801569074536E-04 1.183763659407E-01 6.058749143489E-03
ZR -4.994264881495E-01 1.184569753706E-01 -4.939044324630E-01
ZR 5.974410089739E-04 -3.815463399981E-01 -4.939799960750E-01
ZR -4.998429585736E-01 3.833712234872E-01 -4.590934998291E-03
ZR 1.041629052260E-04 -1.166321688084E-01 -4.511737655678E-03
ZR -4.998599792145E-01 -1.165585400263E-01 4.954577174682E-01
ZR 1.068545448212E-04 3.834336898838E-01 4.954630291960E-01
# Energy: -1.0070109984966E+05
