data_foo_13
_symmetry_space_group_name_H-M 'F -4 3 M'
_space_group_IT_number         216
_cell_length_a                 20.72559038
_cell_length_b                 20.72559038
_cell_length_c                 20.72559038
_cell_angle_alpha              90.000000
_cell_angle_beta               90.000000
_cell_angle_gamma              90.000000
loop_
_atom_site_type_symbol
_atom_site_fract_x
_atom_site_fract_y
_atom_site_fract_z
C 6.159968890941E-03 2.027077065814E-01 -2.972922934186E-01
C 6.519015603092E-03 -1.850917569880E-01 2.323559549043E-01
C -3.975744473039E-03 -3.480534763397E-01 -1.519465236603E-01
H -9.395458511777E-02 9.395458511777E-02 -4.060454148822E-01
H 6.403438981824E-03 2.200876681463E-01 -1.340997226209E-01
O 2.441757795966E-03 3.294381020954E-01 -9.394674180527E-02
O -4.957424785185E-02 -4.504257521481E-01 -4.957424785185E-02
O 4.328732663300E-01 -6.712673367005E-02 -6.712673367005E-02
ZR -7.362973628682E-24 3.798977461186E-01 -2.267723357307E-17
# Energy: -2.5476545077932E+04

