data_foo_2
_symmetry_space_group_name_H-M 'P -4 3 M'
_space_group_IT_number         215
_cell_length_a                 20.71971360
_cell_length_b                 20.71971360
_cell_length_c                 20.71971360
_cell_angle_alpha              90.000000
_cell_angle_beta               90.000000
_cell_angle_gamma              90.000000
loop_
_atom_site_type_symbol
_atom_site_fract_x
_atom_site_fract_y
_atom_site_fract_z
C 2.026938879229E-01 -2.972855487291E-01 6.015794407427E-03
C 2.676455807656E-01 -6.838828033473E-03 3.149385171698E-01
C -3.480311740471E-01 -3.817247501436E-03 -1.519041210852E-01
C 1.513681450220E-01 4.939540546628E-01 -1.513681450220E-01
C -2.323248917573E-01 -5.936605721788E-03 -1.850527529352E-01
H 9.404660871338E-02 9.404660871338E-02 4.060959681602E-01
H 1.888540458797E-01 4.887410785179E-01 -1.888540458797E-01
H 3.659415425789E-01 -2.799632347271E-01 7.103177639798E-03
H 1.340445289894E-01 -2.200614477237E-01 5.479145398262E-03
O -9.416795073278E-02 1.711128637531E-01 4.969155609774E-01
O 4.969506322625E-02 4.969506322625E-02 -4.504486999922E-01
O 1.704854577827E-01 -2.229178569399E-03 4.060546432690E-01
O 6.726195217211E-02 -6.726195217211E-02 -4.330332389892E-01
O -3.294350722999E-01 -2.353326472615E-03 -9.387198599588E-02
ZR -3.799831926729E-01 0.000000000000E+00 0.000000000000E+00
ZR 1.203487954693E-01 0.000000000000E+00 -5.000000000000E-01
# Energy: -7.5055943320859E+04

