data_foo_35
_symmetry_space_group_name_H-M 'C 2'
_space_group_IT_number         5
_cell_length_a                 20.72260472
_cell_length_b                 20.71595573
_cell_length_c                 20.72124278
_cell_angle_alpha              90.000000
_cell_angle_beta               89.984846
_cell_angle_gamma              90.000000
loop_
_atom_site_type_symbol
_atom_site_fract_x
_atom_site_fract_y
_atom_site_fract_z
C 2.436838629104E-01 1.638634094874E-02 -4.353480761387E-01
C -2.556592073937E-01 1.696768961374E-02 6.522091100445E-02
C -2.438042394918E-01 -1.903378827522E-02 -4.348228774340E-01
C 2.573662309666E-01 -1.843043253463E-02 6.460656815251E-02
C 6.491264343566E-02 -2.574928751474E-01 1.769413424233E-02
C 1.783312323305E-02 6.399629488423E-02 -2.560318482941E-01
C 1.743449357103E-02 -4.360923956277E-01 2.440501323385E-01
C 1.731899826462E-02 -6.597844118012E-02 2.566001945302E-01
C 1.785716634290E-02 4.339738211728E-01 -2.430921505717E-01
C 1.759871689756E-02 -2.574893467950E-01 6.494086266239E-02
C 2.435473496910E-01 6.365868621945E-02 -4.826402273473E-01
C -2.555733349946E-01 6.422975947762E-02 1.791917383590E-02
C -2.439198794677E-01 -6.631019421249E-02 -4.821194476310E-01
C 2.574584397920E-01 -6.569432940715E-02 1.730867636857E-02
C 6.515819716652E-02 1.675593310777E-02 -2.561434010405E-01
C -4.352940645397E-01 1.662348744557E-02 2.441225082616E-01
C 6.464664998928E-02 -1.874679496640E-02 2.564614531208E-01
C -4.348735633244E-01 -1.872746996428E-02 -2.430069304207E-01
C -2.465006780193E-01 -9.930963268117E-02 4.021305185310E-01
C 2.540923908165E-01 -9.879325411384E-02 -9.836608835011E-02
C 2.460232598112E-01 9.673202804912E-02 4.016675786151E-01
C -2.537937872950E-01 9.725205598330E-02 -9.782896859305E-02
C -9.835502760563E-02 2.425220709115E-01 -4.012804947455E-01
C -9.812920748646E-02 -2.549275302170E-01 9.799790685257E-02
C -9.840359254375E-02 -9.897833737247E-02 2.540161495419E-01
C -9.784087924454E-02 4.008962744753E-01 -2.463086941337E-01
C -9.789517740595E-02 9.695384006225E-02 -2.535620003256E-01
C 4.017269059125E-01 9.701834930166E-02 2.459710566791E-01
C 2.442249994789E-01 -4.859485930797E-02 -4.529436603004E-01
C -2.562321584250E-01 -4.800665537191E-02 4.762098480748E-02
C -2.439758178712E-01 4.594869888018E-02 -4.524216800642E-01
C 2.560630286893E-01 4.653701338059E-02 4.701894193854E-02
C 4.733325420112E-02 -2.571255962460E-01 -4.726644886161E-02
C -4.708755706903E-02 4.623884450227E-02 -2.558181623934E-01
C 4.524913123262E-01 4.624169838729E-02 2.438442753480E-01
C -4.760306250550E-02 -4.823478187244E-02 2.560656073369E-01
C -4.707585112424E-02 4.516534289527E-01 -2.440159823588E-01
C 9.890378414283E-02 -2.451159236578E-01 -4.012766787176E-01
C 9.859495691737E-02 2.552235012919E-01 9.854009658050E-02
H 2.952732944157E-02 -1.170123068427E-01 2.567872798045E-01
H 3.012591127619E-02 3.829509717054E-01 -2.428270293160E-01
H 2.984788795073E-02 -2.573721320476E-01 1.159462819912E-01
H 2.434785394186E-01 1.146868289369E-01 -4.703927451959E-01
H -2.546777547114E-01 1.152465507666E-01 3.016622699577E-02
H -2.441507521807E-01 -1.173381910061E-01 -4.698695613886E-01
H 2.581480879668E-01 -1.167160455229E-01 2.955089170158E-02
H 1.161351579912E-01 2.912554085272E-02 -2.559096810953E-01
H -3.843021142232E-01 2.891975089852E-02 2.446739494711E-01
H 1.156268331301E-01 -3.110765198964E-02 2.564784830964E-01
H -3.838837597106E-01 -3.104106218952E-02 -2.426920550258E-01
H -1.556508414103E-01 3.427189259697E-01 -3.441460202850E-01
H -1.562684891633E-01 -1.568818656703E-01 1.562062127865E-01
H 1.562158236560E-01 -3.451142685319E-01 -3.438756423090E-01
H 1.558196144718E-01 1.551165422582E-01 1.558034204114E-01
H 6.113151289049E-02 2.605997144181E-01 6.105029276629E-02
H 6.143300662213E-02 -2.397980245817E-01 -4.387680662501E-01
H -6.085461024901E-02 2.370741085086E-01 -4.387417381880E-01
H -2.970598860351E-02 -3.850772347975E-01 -2.445922391998E-01
H -3.004026052067E-02 1.150332840072E-01 2.557477717148E-01
H -1.158970031910E-01 -2.573777335067E-01 -3.001806973600E-02
H -2.579304925558E-01 -3.075595073923E-02 -1.155945332962E-01
H 2.439664501721E-01 -3.137432086637E-02 3.838340478357E-01
H 2.548641240507E-01 2.928652598985E-02 -1.162081859454E-01
H -2.437445633348E-01 2.872423313695E-02 3.843596676355E-01
O -7.958299401481E-02 -2.534587254792E-01 1.560319488303E-01
O -7.860112528289E-02 2.456541462062E-01 -3.441160805230E-01
O 7.925424030696E-02 3.428533888724E-01 2.478642818418E-01
O 7.981082774817E-02 -1.570153821169E-01 -2.524554943534E-01
O 7.965560071741E-02 -3.449441101236E-01 -2.476440269017E-01
O 7.931867597118E-02 1.549980792172E-01 2.519459970631E-01
O -1.561358348825E-01 -2.533360112502E-01 7.938997567544E-02
O -1.555038166852E-01 2.455384570490E-01 -4.210946771336E-01
O -1.557665234035E-01 2.521974029732E-01 -7.876945150071E-02
O -1.560672230958E-01 -2.481547242049E-01 4.210767126049E-01
O -2.523195840463E-01 7.860643543252E-02 -1.558333756393E-01
O 2.474100847300E-01 7.820625641925E-02 3.436214681750E-01
O 2.526160037452E-01 -8.025823719043E-02 -1.564071997692E-01
O -2.479275650587E-01 -8.065273744489E-02 3.441281427156E-01
O 7.909846684988E-02 -2.481019779241E-01 -3.441095754803E-01
O 7.875992477416E-02 2.521665040926E-01 1.556962487657E-01
O 2.475792012696E-01 1.547582835381E-01 4.203160279962E-01
O -2.521232104589E-01 1.553075715733E-01 -7.927268884712E-02
O -2.481724526777E-01 -1.573708462036E-01 4.206547598746E-01
O 2.525592012382E-01 -1.568087774685E-01 -7.970155020863E-02
O 1.564222355044E-01 -8.037851840666E-02 -2.526418617847E-01
O -3.441464486158E-01 -8.050481256358E-02 2.478848199894E-01
O 1.559109888241E-01 7.834710864098E-02 2.521134108407E-01
O -3.437040450051E-01 7.844226871361E-02 -2.473551912589E-01
O 1.824449883790E-01 3.158018707494E-01 3.173449039448E-01
O 1.830725261547E-01 -1.838399187720E-01 -1.829610161687E-01
O -1.829922526444E-01 -3.181238048978E-01 3.171461396078E-01
O -1.825727524976E-01 1.820475203782E-01 -1.826170319216E-01
O -2.000322761112E-01 1.992853405794E-01 -2.996345237945E-01
O 2.993679912617E-01 1.994920163442E-01 2.003495016317E-01
O 2.005976706926E-01 -2.015597590822E-01 -2.997988499263E-01
O 2.000725815681E-01 2.985732565952E-01 2.003714025644E-01
ZR 1.294713054326E-01 2.489301451590E-01 2.499340773974E-01
ZR -1.299788562101E-01 -2.510318327914E-01 2.498821795007E-01
ZR 2.499573839002E-01 2.491264141241E-01 1.297234273693E-01
ZR -2.497195239690E-01 2.487672852807E-01 -3.702953971939E-01
ZR -2.497745622934E-01 1.288809878322E-01 -2.498307125000E-01
ZR 2.502765962359E-01 -1.309839311042E-01 -2.501958422399E-01
# Energy: -5.0266243832015E+04


