data_foo_49
_symmetry_space_group_name_H-M 'I M M 2'
_space_group_IT_number         44
_cell_length_a                 14.64757917
_cell_length_b                 14.65779966
_cell_length_c                 20.72104316
_cell_angle_alpha              90.000000
_cell_angle_beta               90.000000
_cell_angle_gamma              90.000000
loop_
_atom_site_type_symbol
_atom_site_fract_x
_atom_site_fract_y
_atom_site_fract_z
C -1.907016387862E-01 1.793620441150E-01 2.693794624091E-01
C -1.778772933011E-01 1.923983699433E-01 -2.659738244298E-01
C 8.260808474392E-02 -4.527424902288E-01 -5.007375446756E-03
C 2.620586179477E-01 2.733137124221E-01 -1.833565895126E-01
C 2.748861835970E-01 2.602741169879E-01 1.867571507180E-01
C 1.558304687891E-01 -1.479278717365E-01 1.536609305361E-01
C 1.481186495649E-01 -1.558158689393E-01 -1.502790275275E-01
C -3.220587372949E-17 3.039487874356E-01 -2.415877473020E-03
C -2.087898649852E-01 1.965081725378E-01 2.044262196185E-01
C -1.966850575919E-01 2.088085656470E-01 -2.010265678604E-01
C -3.225802137180E-17 -4.054422648942E-01 -4.636809109671E-03
C -3.026937033520E-01 -6.644107201313E-19 7.623338735413E-03
H 1.459207463727E-01 4.140534317117E-01 -4.888754447316E-03
H 2.751080204777E-01 -2.847499992996E-01 -1.323496873852E-01
H 2.877207901755E-01 -2.719152636352E-01 1.357449583294E-01
H -1.389717768180E-01 -1.291021040658E-01 2.816601109140E-01
H -1.263740101086E-01 -1.419113164307E-01 -2.782634744922E-01
H -5.024177662852E-20 1.877300029150E-01 9.571881879576E-02
H -1.879550970239E-01 1.552768334365E-17 -9.242226317510E-02
H -3.776974858167E-01 -3.239938098621E-17 1.293051896013E-02
O -1.729345551501E-01 -1.680302709673E-01 9.564455443736E-02
O -1.684141000391E-01 -1.727440196122E-01 -9.225728423636E-02
O -7.663294656855E-02 2.645327573983E-01 -8.717416062706E-04
O 2.653268440777E-01 -7.693516748684E-02 4.617473896576E-03
O 9.152132095762E-02 -9.637827342715E-02 -1.688690428717E-01
O 9.625215594022E-02 -9.146953492585E-02 1.722555530101E-01
O 8.037900690814E-18 -1.342384500314E-01 6.873024679047E-02
O 1.344763696070E-01 3.904734659306E-19 -6.539169604244E-02
O 2.171181955271E-20 9.921381258659E-02 -4.792032791825E-02
O -9.944868503863E-02 -2.142154249554E-19 5.117641068076E-02
ZR -1.201680161303E-01 -1.203282882143E-01 1.633925307711E-03
ZR 3.103474692232E-20 7.867877061810E-18 -1.183971096071E-01
ZR 1.608692003501E-17 -1.575884697692E-17 1.216645116762E-01
# Energy: -2.5247596068697E+04

