data_foo_55
_symmetry_space_group_name_H-M 'P M'
_space_group_IT_number         6
_cell_length_a                 15.06795158
_cell_length_b                 14.62191717
_cell_length_c                 20.50763437
_cell_angle_alpha              90.000000
_cell_angle_beta               90.000111
_cell_angle_gamma              90.000000
loop_
_atom_site_type_symbol
_atom_site_fract_x
_atom_site_fract_y
_atom_site_fract_z
C -3.195120452524E-01 -3.070898273562E-01 -2.704233416736E-01
C 1.805423813790E-01 1.924398602930E-01 2.293852515779E-01
C 3.196007407904E-01 3.074039488493E-01 -2.706157569901E-01
C -1.806185829836E-01 -1.927587922784E-01 2.295717988654E-01
C -3.078638421448E-01 3.198289184021E-01 2.690228030756E-01
C 1.925567291573E-01 -1.801124616214E-01 -2.311846392025E-01
C 3.072896830363E-01 -3.200490282077E-01 2.688094020349E-01
C -1.919995859945E-01 1.803043216490E-01 -2.309719282567E-01
C 1.952003533745E-01 2.087231220061E-01 2.954997542093E-01
C -3.044706663124E-01 -2.912353185900E-01 -2.043041943348E-01
C -1.955140873360E-01 -2.087659548781E-01 2.956899936594E-01
C 3.047954230101E-01 2.912822958553E-01 -2.044994812567E-01
C 2.067135558139E-01 -1.969252917426E-01 -2.972860916773E-01
C -2.936141919455E-01 3.031216554281E-01 2.029163026460E-01
C -2.063874886614E-01 1.968689935375E-01 -2.970809135568E-01
C 2.932862746293E-01 -3.030711651190E-01 2.027108071094E-01
C -1.523775448745E-01 1.484434826696E-01 -3.472429654153E-01
C 3.473290014303E-01 -3.515077922925E-01 1.525718616794E-01
C 1.526703917948E-01 -1.484914057182E-01 -3.474258505273E-01
C -3.476314191594E-01 3.515436624019E-01 1.527574420032E-01
C 1.451327066665E-01 1.560908078444E-01 3.457185134786E-01
C -3.545783799603E-01 -3.438840015551E-01 -1.541150029337E-01
C -1.454037918346E-01 -1.561224918261E-01 3.458803746556E-01
C 3.548663754324E-01 3.439156964734E-01 -1.542831934782E-01
C -4.999784773673E-01 -1.961157493880E-01 -5.136248137796E-03
C -2.478737413398E-05 3.038847117347E-01 4.948795319920E-01
C -2.058744273454E-01 -5.000000000000E-01 6.651827466428E-03
C 2.941665845736E-01 -5.546678239835E-32 -4.938225130716E-01
C 2.058330965831E-01 -5.000000000000E-01 6.169285796796E-03
C -2.941272800643E-01 -4.930380657631E-32 -4.934080802352E-01
C -2.705339628505E-01 -2.599625193484E-01 -3.167240292424E-01
C 2.295287108394E-01 2.395524502404E-01 1.830785440768E-01
C 2.706230486185E-01 2.602792175302E-01 -3.169212590284E-01
C -2.296070503280E-01 -2.398784861224E-01 1.832728290522E-01
C -2.588772434103E-01 2.727014465496E-01 3.153167829643E-01
C 2.415266364309E-01 -2.272413672130E-01 -1.848839358212E-01
C 2.583230123049E-01 -2.729191654769E-01 3.151111274284E-01
C -2.409737020184E-01 2.274406849916E-01 -1.846765325678E-01
C 1.071166894964E-01 -5.000000000000E-01 1.404301809172E-02
C -3.921230775636E-01 1.109335647967E-31 -4.818471688983E-01
C -4.999750345207E-01 9.456024321862E-02 -7.617217500026E-03
C -2.797333001000E-05 -4.054402645894E-01 4.924049793965E-01
C -1.078863287568E-01 -5.000000000000E-01 1.825492622490E-02
C 3.928805385591E-01 -4.314083075427E-32 -4.859398899404E-01
C 8.034373246152E-02 -4.526558546027E-01 4.919742310260E-01
C -8.039906313484E-02 -4.526567500122E-01 4.920058193678E-01
C -4.196025873232E-01 4.734413362065E-02 -8.010658374109E-03
C 4.196530013772E-01 -4.734367555122E-02 -8.075422893263E-03
H 7.699007749538E-02 -5.000000000000E-01 -3.464697555075E-02
H 4.230095251300E-01 -1.848892746612E-32 4.653705319357E-01
H -9.654054966428E-02 -5.000000000000E-01 7.110547085635E-02
H -4.035181993679E-01 -3.081487911020E-32 -4.289993676010E-01
H 8.543933727341E-02 -4.383486491353E-01 3.955123640416E-02
H 4.145579861221E-01 -6.165137593317E-02 -4.604318204526E-01
H -7.779251948226E-02 4.382477299998E-01 -1.960058049792E-03
H -4.222064609554E-01 6.175148846780E-02 4.979229812499E-01
H -3.581474409886E-01 8.627182316905E-02 -7.845192061816E-03
H 1.417978395112E-01 -4.137285421305E-01 4.921124556071E-01
H -1.418532343684E-01 -4.137286483910E-01 4.921713097390E-01
H 3.581977287490E-01 -8.627104528919E-02 -7.964671429448E-03
H 2.804149276343E-01 2.717978047077E-01 -3.687918712484E-01
H 2.315148814616E-01 -2.159350665559E-01 -1.330149975206E-01
H -2.197410011919E-01 -2.284516795179E-01 1.313996304996E-01
H 4.999038931178E-01 -3.117437200165E-01 9.426055965542E-02
H 1.830256039009E-01 6.162975822039E-33 4.046765389143E-01
H -2.307723652314E-01 2.163534846182E-01 -1.328035039566E-01
H 2.682209155977E-01 -2.843507998622E-01 3.669789156550E-01
H -1.833048124399E-01 4.930380657631E-32 4.049379271087E-01
H 2.198701439674E-01 2.278878780944E-01 1.312095351771E-01
H -3.579353368075E-01 -3.696456539811E-01 2.830149841427E-01
H 1.425509243344E-01 1.302236179065E-01 -2.171990529699E-01
H 3.571766832224E-01 3.700659481665E-01 2.827930007039E-01
H -1.418180853393E-01 -1.306053690216E-01 -2.169810511394E-01
H -3.695001370704E-01 3.569957858641E-01 -2.844110200954E-01
H 1.308596196688E-01 -1.422033219580E-01 2.154072290470E-01
H 3.693934890287E-01 -3.575224166073E-01 -2.845966713696E-01
H -1.307474230583E-01 1.427278040549E-01 2.155836192052E-01
H -2.689604839339E-01 2.839127832672E-01 3.671892153517E-01
H 3.169818277566E-01 -5.000000000000E-01 -9.532765844440E-02
H -2.805207912139E-01 -2.712640367493E-01 -3.685981308234E-01
H -3.166760638045E-01 -5.000000000000E-01 -9.504544450560E-02
H 9.962827190225E-05 1.882527566318E-01 -4.057338752851E-01
O -5.922680192139E-05 9.893345845694E-02 4.487888954054E-01
O 3.320429814761E-01 3.313563195999E-01 9.378116462387E-02
O -1.678263825879E-01 -1.685100442122E-01 -4.060249969926E-01
O 4.037316036771E-01 -5.000000000000E-01 4.968555568434E-02
O 1.679615352591E-01 1.686357732280E-01 -4.062165061993E-01
O 3.363784999446E-01 -3.270622741500E-01 -9.544473401938E-02
O -1.638017211733E-01 1.729786136475E-01 4.047310880877E-01
O -4.999378232598E-01 -4.010667539451E-01 -5.121240453531E-02
O 1.636155489696E-01 -1.729496346223E-01 4.045577358735E-01
O -8.998736766248E-02 9.735822372982E-02 3.263621984715E-01
O 4.103175493450E-01 -4.026732497568E-01 -1.737544573261E-01
O 8.968881982364E-02 -9.732414620467E-02 3.262485572108E-01
O -4.100136612384E-01 4.026278272386E-01 -1.736329244731E-01
O 9.476233354492E-02 9.233355902162E-02 -3.278849433566E-01
O -4.056055898012E-01 -4.076578548873E-01 1.722556916070E-01
O -9.438726664446E-02 -9.234683877554E-02 -3.277454980222E-01
O 4.052320067992E-01 4.076716793169E-01 1.721123537174E-01
O -7.453274355279E-02 -2.644940040233E-01 4.966058766474E-01
O 4.255088639710E-01 2.355050998339E-01 -3.512214599686E-03
O 7.448856058771E-02 2.644960263233E-01 4.964980001758E-01
O -4.254705097793E-01 -2.355057330481E-01 -3.408797627461E-03
O -2.563287864983E-01 7.677316864007E-02 -4.976098560907E-01
O 2.436733362453E-01 -4.232327910707E-01 2.184836832208E-03
O 2.563271892117E-01 -7.676727433795E-02 -4.978111915941E-01
O -2.436764312277E-01 4.232309474350E-01 2.432078981959E-03
O -3.696642261812E-01 -5.000000000000E-01 -6.880215081317E-02
O 1.301640840802E-01 2.465190328816E-32 4.310513337701E-01
O 3.698415955062E-01 -5.000000000000E-01 -6.895081717075E-02
O -1.303296538366E-01 4.314083075427E-32 4.311952281205E-01
O 4.999373641940E-01 3.656795325342E-01 6.731176363119E-02
O 5.986260251529E-05 -1.343207085226E-01 -4.326865070376E-01
O -3.322060593648E-01 -3.314529613352E-01 9.397597732081E-02
O -9.619203000261E-02 -1.232595164408E-32 -4.501837758306E-01
O -4.038062049277E-01 -5.000000000000E-01 4.981846226492E-02
O 9.626906478081E-02 -4.314083075427E-32 -4.503127942776E-01
O -3.361611342338E-01 3.270448949539E-01 -9.526408391250E-02
ZR 1.165525517777E-01 1.201552257089E-01 4.991295163218E-01
ZR -3.834336245002E-01 -3.798483737826E-01 -7.396638441815E-04
ZR -1.165661652779E-01 -1.201504965155E-01 4.992595262977E-01
ZR 1.331165111517E-04 -1.232595164408E-32 -3.788562371392E-01
ZR 4.998664998499E-01 5.000000000000E-01 1.211434900802E-01
ZR -1.328161439324E-04 1.848892746612E-32 3.772433803361E-01
ZR -4.998604076625E-01 5.000000000000E-01 -1.227575698732E-01
ZR 3.834476060328E-01 3.798451670193E-01 -8.719916914054E-04


