data_foo_73
_symmetry_space_group_name_H-M 'P M'
_space_group_IT_number         6
_cell_length_a                 15.49794362
_cell_length_b                 14.58510063
_cell_length_c                 20.20734129
_cell_angle_alpha              90.000000
_cell_angle_beta               89.999864
_cell_angle_gamma              90.000000
loop_
_atom_site_type_symbol
_atom_site_fract_x
_atom_site_fract_y
_atom_site_fract_z
C -3.217626903649E-01 -3.026601426425E-01 -2.732205804092E-01
C 1.805900385165E-01 1.978508074872E-01 2.283931488015E-01
C 3.194214377012E-01 3.021346284218E-01 -2.716067266178E-01
C -1.782463983949E-01 -1.973298978629E-01 2.267798311058E-01
C -3.073840174520E-01 3.159066677383E-01 2.709648311488E-01
C 1.895248136161E-01 -1.844916468730E-01 -2.274226660215E-01
C 3.104680136222E-01 -3.155188738257E-01 2.725765435185E-01
C -1.926152848505E-01 1.840923789386E-01 -2.290365631764E-01
C 1.954754436177E-01 2.089443172366E-01 2.959573206786E-01
C -3.072076312578E-01 -2.911304486810E-01 -2.056489401701E-01
C -1.927982286612E-01 -2.088621694502E-01 2.943518013922E-01
C 3.045246962750E-01 2.910562633626E-01 -2.040428398886E-01
C 2.037753061190E-01 -1.963956244671E-01 -2.949955999150E-01
C -2.934800813239E-01 3.035994674976E-01 2.033908756175E-01
C -2.065222661811E-01 1.963978636951E-01 -2.966103474464E-01
C 2.962281865459E-01 -3.036006889508E-01 2.050035596825E-01
C -1.512978316867E-01 1.482248102558E-01 -3.459941797264E-01
C 3.512899053228E-01 -3.516404689491E-01 1.554370750656E-01
C 1.487116855593E-01 -1.483577475654E-01 -3.445617462585E-01
C -3.486989759694E-01 3.517793295467E-01 1.540070140393E-01
C 1.441467606330E-01 1.563508924798E-01 3.454670306395E-01
C -3.582995707289E-01 -3.436823660139E-01 -1.559603712060E-01
C -1.416982934302E-01 -1.563185139345E-01 3.440403793351E-01
C 3.558565682810E-01 3.436472456056E-01 -1.545335677146E-01
C -4.999310829279E-01 -1.959505494787E-01 -4.895738395833E-03
C -6.553331425410E-05 3.040494729579E-01 4.951039327881E-01
C -2.150926849580E-01 5.000000000000E-01 3.343836774877E-03
C 2.844730667485E-01 -7.395570986447E-32 -4.918834908258E-01
C 2.155262863190E-01 5.000000000000E-01 8.107529144693E-03
C -2.849078147091E-01 -1.848892746612E-32 -4.966790779255E-01
C -2.715143278386E-01 -2.553425419539E-01 -3.185776566084E-01
C 2.308339728675E-01 2.451489371632E-01 1.830436399441E-01
C 2.691770326900E-01 2.548367142457E-01 -3.169557410487E-01
C -2.284955380337E-01 -2.446473613583E-01 1.814231215029E-01
C -2.571756702124E-01 2.685914230653E-01 3.162984084283E-01
C 2.398095252489E-01 -2.317492088534E-01 -1.820835648928E-01
C 2.601805072405E-01 -2.682643282497E-01 3.179162108455E-01
C -2.428271151262E-01 2.314036428177E-01 -1.837027672524E-01
C 1.166660300953E-01 5.000000000000E-01 1.319507470116E-02
C -3.837081949121E-01 -8.011868568651E-32 -4.903407468919E-01
C -4.999464507644E-01 9.446361788962E-02 -7.607869675832E-03
C -4.950615390497E-05 -4.055365625257E-01 4.924005715754E-01
C -1.162998311863E-01 5.000000000000E-01 9.746928573046E-03
C 3.833288634335E-01 6.162975822039E-32 -4.867662602424E-01
C 7.821777816224E-02 -4.525772582225E-01 4.922168054957E-01
C -7.831247644826E-02 -4.525775765685E-01 4.916255282068E-01
C -4.216834253414E-01 4.742217820079E-02 -8.347943008992E-03
C 4.217864358443E-01 -4.742295429011E-02 -7.827548663947E-03
F 8.427713511827E-02 5.000000000000E-01 -4.858276121053E-02
F 4.157501045619E-01 0.000000000000E+00 4.514681147373E-01
F -9.442731822868E-02 5.000000000000E-01 7.400849378517E-02
F -4.056605114102E-01 1.232595164408E-32 -4.260953196563E-01
F 8.753853816778E-02 -4.258380350925E-01 4.459302855961E-02
F 4.124447634458E-01 -7.416258568908E-02 -4.553550438493E-01
F -8.215879254275E-02 4.257152242108E-01 -1.850712316887E-02
F -4.178163233352E-01 7.428376571588E-02 4.813776972974E-01
H -3.619865876862E-01 8.651646140691E-02 -8.411889461668E-03
H 1.379131480235E-01 -4.134833552124E-01 4.925758426625E-01
H -1.380095904516E-01 -4.134837784348E-01 4.915290238077E-01
H 3.620910779940E-01 -8.651714024640E-02 -7.489135733459E-03
H 2.795087188614E-01 2.623044687680E-01 -3.698793908258E-01
H 2.294921782725E-01 -2.242685571968E-01 -1.291608200187E-01
H -2.185389947463E-01 -2.367158904857E-01 1.284917331970E-01
H -4.992161745426E-01 -3.115751272132E-01 9.659554943403E-02
H 1.784424970992E-01 -4.930380657631E-32 4.038319503633E-01
H -2.326952224296E-01 2.236810629724E-01 -1.307789067166E-01
H 2.704938500673E-01 -2.757520780514E-01 3.708392086135E-01
H -1.764116611013E-01 -4.930380657631E-32 4.017158085613E-01
H 2.205102150290E-01 2.376706076810E-01 1.301196551924E-01
H -3.581813018599E-01 -3.622835258606E-01 2.869917572149E-01
H 1.384407722099E-01 1.384663739426E-01 -2.113930849383E-01
H 3.615377853633E-01 3.615614468438E-01 2.886055863611E-01
H -1.418152629432E-01 -1.377175086195E-01 -2.130104409346E-01
H -3.724143423095E-01 3.492022609536E-01 -2.892789491007E-01
H 1.296304219187E-01 -1.516891787765E-01 2.123428845644E-01
H 3.703781595680E-01 -3.482968425067E-01 -2.876572575913E-01
H -1.275959865874E-01 1.507868731038E-01 2.107205550923E-01
H -2.673068038609E-01 2.763149656114E-01 3.692222130712E-01
H 3.215659049060E-01 5.000000000000E-01 -9.617460874127E-02
H -2.814717606154E-01 -2.632741553502E-01 -3.715090864803E-01
H -3.235802909723E-01 5.000000000000E-01 -9.827840609518E-02
H -7.793896374480E-04 1.884237956767E-01 -4.034039263937E-01
O 4.172326476980E-04 9.881900711623E-02 4.484191662945E-01
O 3.372820172435E-01 3.319604590824E-01 9.546858378615E-02
O -1.648268295260E-01 -1.677134312873E-01 -4.060581820383E-01
O 4.069281456017E-01 5.000000000000E-01 5.154391306520E-02
O 1.627197972295E-01 1.680379743523E-01 -4.045303081701E-01
O 3.392226209140E-01 -3.275123743284E-01 -9.440341892203E-02
O -1.588466242659E-01 1.725755585416E-01 4.040679809240E-01
O 4.995849376542E-01 -4.011813764685E-01 -5.158156942036E-02
O 1.607785306385E-01 -1.724884800631E-01 4.055971567322E-01
O -8.706912081377E-02 9.832764973034E-02 3.238935307637E-01
O 4.103326720479E-01 -4.015837482877E-01 -1.750251967806E-01
O 8.967008084250E-02 -9.841480425202E-02 3.249758635988E-01
O -4.129282413747E-01 4.016738340147E-01 -1.761071647102E-01
O 9.160943271972E-02 9.324993996992E-02 -3.242805432267E-01
O -4.056335924172E-01 -4.068303246864E-01 1.746615904327E-01
O -9.436819538630E-02 -9.316835626956E-02 -3.253399550779E-01
O 4.083887450394E-01 4.067523058292E-01 1.757181848991E-01
O -7.243654206698E-02 -2.644304502587E-01 4.966644903257E-01
O 4.277265124942E-01 2.355747008923E-01 -2.868650685258E-03
O 7.227664103723E-02 2.644252002595E-01 4.971370260792E-01
O -4.275599424873E-01 -2.355693634153E-01 -3.331592368014E-03
O -2.509721661758E-01 7.740212878444E-02 -4.985416378023E-01
O 2.492279908269E-01 -4.225828125953E-01 4.745914691985E-03
O 2.507737406371E-01 -7.741728935224E-02 -4.952496920416E-01
O -2.490266708888E-01 4.225978827725E-01 1.460511174279E-03
O -3.734095401077E-01 5.000000000000E-01 -6.979807783051E-02
O 1.278611619301E-01 0.000000000000E+00 4.315432020622E-01
O 3.721414057705E-01 5.000000000000E-01 -6.845737387442E-02
O -1.265876422426E-01 2.465190328816E-32 4.302013338957E-01
O -4.993548118889E-01 3.654630593449E-01 6.902457010926E-02
O -6.444013833826E-04 -1.345359040037E-01 -4.309748613365E-01
O -3.351710758452E-01 -3.322904265191E-01 9.394283510726E-02
O -9.390692838356E-02 -1.848892746612E-32 -4.494471401729E-01
O -4.060896678380E-01 5.000000000000E-01 5.055437831693E-02
O 9.307627569683E-02 -6.779273404243E-32 -4.484544806579E-01
O -3.411535955268E-01 3.274230832538E-01 -9.593284892347E-02
ZR 1.127214723069E-01 1.207042130714E-01 -4.997254627139E-01
ZR -3.871765622924E-01 -3.793182326473E-01 -8.070278001278E-04
ZR -1.128226320677E-01 -1.206815786781E-01 4.991937580165E-01
ZR -1.027582134850E-03 -1.232595164408E-32 -3.760569119499E-01
ZR -4.989703316391E-01 5.000000000000E-01 1.239431267314E-01
ZR 1.032725587246E-03 3.081487911020E-32 3.754839385716E-01
ZR 4.989698368458E-01 5.000000000000E-01 -1.245170583986E-01
ZR 3.872800534088E-01 3.792957904049E-01 2.746401079203E-04


