data_foo_40
_symmetry_space_group_name_H-M 'I M M 2'
_space_group_IT_number         44
_cell_length_a                 14.54112262
_cell_length_b                 14.76795238
_cell_length_c                 20.71125970
_cell_angle_alpha              90.000000
_cell_angle_beta               90.000000
_cell_angle_gamma              90.000000
loop_
_atom_site_type_symbol
_atom_site_fract_x
_atom_site_fract_y
_atom_site_fract_z
C -1.913811233024E-01 1.789452664702E-01 2.693815006314E-01
C -1.785737606762E-01 1.915091189946E-01 -2.661313061424E-01
C 2.617767043611E-01 2.732794766570E-01 -1.833669795410E-01
C 2.745883925673E-01 2.607142574650E-01 1.866179653610E-01
C 1.565483963540E-01 -1.472758049171E-01 1.536137145729E-01
C 1.489230557237E-01 -1.547892590744E-01 -1.504171026849E-01
C 0.000000000000E+00 3.003419581087E-01 -4.540212626905E-03
C -2.091760573388E-01 1.962852549867E-01 2.043772428820E-01
C -1.971141934978E-01 2.081249548211E-01 -2.011342524822E-01
C -3.049812131649E-01 4.520225752807E-19 7.692607648075E-03
H 2.745343986820E-01 2.849453964844E-01 -1.323200808076E-01
H 2.871656219923E-01 2.725539032898E-01 1.355696404708E-01
H -1.402008727931E-01 -1.281715865268E-01 2.817435094220E-01
H -1.276114789863E-01 -1.405246262526E-01 -2.784928267497E-01
H 0.000000000000E+00 1.864984087623E-01 9.557977331342E-02
H -1.892564591456E-01 1.597729952670E-17 -9.258962774451E-02
H -3.805305434039E-01 4.710985749642E-19 1.298495823706E-02
H 0.000000000000E+00 3.747169728275E-01 -9.904837953747E-03
O -2.673174405855E-01 -7.634471121303E-02 4.697119544142E-03
O 7.753211421141E-02 2.632458037311E-01 -1.507880296381E-03
O -1.738715932485E-01 -1.670799924183E-01 9.554695346032E-02
O -1.695637804347E-01 -1.713435480489E-01 -9.236723039072E-02
O 9.216524486516E-02 -9.555786465615E-02 -1.690247389804E-01
O 9.691284911250E-02 -9.083182776496E-02 1.721886403900E-01
O 0.000000000000E+00 -1.334248801198E-01 6.856424705278E-02
O 1.355000653664E-01 -1.833877981495E-19 -6.542977580249E-02
O 0.000000000000E+00 9.870071828106E-02 -4.800400789743E-02
O -1.001716767755E-01 1.873531227702E-19 5.111064366865E-02
ZR -1.212677536422E-01 -1.194013010542E-01 1.577616298647E-03
ZR 0.000000000000E+00 1.334938892602E-19 -1.184696995897E-01
ZR 0.000000000000E+00 6.515951561715E-21 1.216361439679E-01
# Energy: -2.5018647011810E+04


