data_foo_42
_symmetry_space_group_name_H-M 'P 1'
_space_group_IT_number         1
_cell_length_a                 20.54967979
_cell_length_b                 20.54932686
_cell_length_c                 21.02363141
_cell_angle_alpha              90.114592
_cell_angle_beta               89.990908
_cell_angle_gamma              89.766891
loop_
_atom_site_type_symbol
_atom_site_fract_x
_atom_site_fract_y
_atom_site_fract_z
C -4.971055312437E-01 -3.156571338668E-01 -2.647157564348E-01
C 2.618780974339E-03 -3.154806081631E-01 2.350283726501E-01
C 2.871968088734E-03 1.845319040133E-01 -2.649949963048E-01
C -4.951686538399E-01 1.834099092848E-01 2.343199393589E-01
C -8.400617054506E-03 -3.169352374796E-01 -2.327349636746E-01
C 4.915511437530E-01 -3.176132477751E-01 2.674879921027E-01
C 4.893209423990E-01 1.832663652397E-01 -2.331824299773E-01
C -8.168625563350E-03 1.830566423424E-01 2.672252248343E-01
C -1.250085286939E-02 -1.856278842066E-01 -2.655315310891E-01
C 4.874536845628E-01 -1.863111120870E-01 2.345919811998E-01
C 4.888021199548E-01 3.147906712236E-01 -2.654159468576E-01
C -1.282087222316E-02 3.143511309779E-01 2.344839066844E-01
C -4.946821710127E-01 -1.839577248820E-01 -2.328577245904E-01
C 5.076349911104E-03 -1.837888228988E-01 2.669939201991E-01
C 5.090148776506E-03 3.162201399279E-01 -2.329791181517E-01
C -4.960899036969E-01 3.149268900453E-01 2.670409619071E-01
C -2.729756155540E-01 -4.926184832187E-01 -3.132781335121E-01
C 2.269196127210E-01 -4.925785429330E-01 1.865867214989E-01
C 2.279097540866E-01 6.765670318338E-03 -3.134097762900E-01
C -2.723338068430E-01 6.767462565093E-03 1.864200823125E-01
C -2.334937490676E-01 -8.977874443210E-03 -3.133306693066E-01
C 2.665049743491E-01 -9.289071702903E-03 1.866805067016E-01
C 2.659979174653E-01 4.910721481280E-01 -3.131612354988E-01
C -2.341691161985E-01 4.903925125665E-01 1.869871903072E-01
C -2.713870003967E-01 -7.701751634430E-03 -1.860726340018E-01
C 2.286088668326E-01 -8.667812017974E-03 3.139458739528E-01
C 2.280630286814E-01 4.917934867358E-01 -1.859170507454E-01
C -2.720972773357E-01 4.914810493693E-01 3.142405360000E-01
C -2.350178444915E-01 -4.921850052793E-01 -1.860488088464E-01
C 2.648258999915E-01 -4.923959648814E-01 3.138410250581E-01
C 2.657045186054E-01 7.947057569666E-03 -1.861458624858E-01
C -2.343604332855E-01 7.878945419182E-03 3.136551677999E-01
C -4.965066045686E-01 -2.691262856136E-01 -3.123299374360E-01
C 3.235113503884E-03 -2.689173697065E-01 1.874482689461E-01
C 3.185872133702E-03 2.311188110348E-01 -3.125539693107E-01
C -4.952361667633E-01 2.302641418932E-01 1.870115292687E-01
C -1.253298965487E-02 -2.326983300967E-01 -3.128281278001E-01
C 4.874365291227E-01 -2.334051037520E-01 1.873330809992E-01
C 4.888278903094E-01 2.679514014671E-01 -3.129059482904E-01
C -1.255419987676E-02 2.672964009461E-01 1.871680013823E-01
C -8.545691752750E-03 -2.698812270634E-01 -1.854493272380E-01
C 4.914018615038E-01 -2.705310552158E-01 3.147411182409E-01
C 4.892029418203E-01 2.301004832403E-01 -1.856976590809E-01
C -8.610298260448E-03 2.300949433342E-01 3.145299307637E-01
C -4.951726624316E-01 -2.304864967642E-01 -1.852652080297E-01
C 4.565119048526E-03 -2.303465987416E-01 3.145483602585E-01
C 4.890825339353E-03 2.696387791020E-01 -1.854456864528E-01
C -4.959107349698E-01 2.680780930142E-01 3.143482653839E-01
C -3.197718998867E-01 -4.929116437634E-01 -2.658155369744E-01
C 1.800968770789E-01 -4.926987959904E-01 2.340190685121E-01
C 1.810493970641E-01 6.647841782887E-03 -2.660094249058E-01
C -3.191204447193E-01 6.334002641109E-03 2.338822286229E-01
C -3.182011688338E-01 -7.874346296383E-03 -2.334922199173E-01
C 1.817876655702E-01 -8.711563228825E-03 2.665412224359E-01
C 1.812622654503E-01 4.916022784543E-01 -2.333520522088E-01
C -3.189067928679E-01 4.910791924320E-01 2.668225170034E-01
C -1.866686666516E-01 -8.710085252011E-03 -2.659165089365E-01
C 3.133308348120E-01 -9.130083980779E-03 2.340818577649E-01
C 3.128066298713E-01 4.913504254358E-01 -2.657315356841E-01
C -1.873556247761E-01 4.908730960124E-01 2.343983663750E-01
C -1.882268109509E-01 -4.919840417593E-01 -2.334983736993E-01
C 3.116410903547E-01 -4.923825054304E-01 2.664211688945E-01
C 3.125579559010E-01 7.972057739074E-03 -2.335380137724E-01
C -1.875841349267E-01 8.195555297310E-03 2.662047176713E-01
C -8.797712581898E-03 -1.535485709668E-01 -1.509562220619E-01
C 4.911264252490E-01 -1.541746248133E-01 3.490848103751E-01
C 4.904896724415E-01 3.463427314200E-01 -1.507503066742E-01
C -9.432598816539E-03 3.464264101145E-01 3.490801293720E-01
C -4.966827411073E-01 -1.529786633937E-01 -3.475736732770E-01
C 3.114997871697E-03 -1.527386791352E-01 1.523373992510E-01
C 2.654910432703E-03 3.473001846005E-01 -3.476115813200E-01
C -4.974563723706E-01 3.465702758962E-01 1.524731054265E-01
C -4.988453796243E-01 -3.466613730415E-01 -1.500385408981E-01
C 8.722135052634E-04 -3.465017517792E-01 3.496967779354E-01
C 1.577590002540E-03 1.534700015449E-01 -1.503433944705E-01
C -4.968346974797E-01 1.517911537694E-01 3.489051055601E-01
C -8.094793137966E-03 -3.489416489692E-01 -3.473871620309E-01
C 4.919192133630E-01 -3.496100188707E-01 1.528579464130E-01
C 4.909345621233E-01 1.516771919981E-01 -3.478128472807E-01
C -7.592825034389E-03 1.510697311227E-01 1.525646406833E-01
C -1.551244245403E-01 -6.065827328449E-03 -1.512938160076E-01
C 3.448500075609E-01 -7.005514071975E-03 3.486705459361E-01
C 3.442994482423E-01 4.937657392028E-01 -1.510908359396E-01
C -1.558582064769E-01 4.937386570959E-01 3.489760372987E-01
C -3.511961033582E-01 -4.947450523874E-01 -1.511227511899E-01
C 1.486501294198E-01 -4.944184343333E-01 3.486848215722E-01
C 1.494781151997E-01 5.488310997694E-03 -1.513455485241E-01
C -3.505166240901E-01 4.774624395322E-03 3.485394146244E-01
C -1.566350269814E-01 -4.938289136807E-01 -3.480670898526E-01
C 3.432716622078E-01 -4.941642559997E-01 1.519039235630E-01
C 3.442396937262E-01 5.866412421395E-03 -3.481307715273E-01
C -1.560011585526E-01 6.120227715608E-03 1.516835143923E-01
C -3.497976151921E-01 -7.142472508533E-03 -3.481172743467E-01
C 1.502282242714E-01 -7.525601389710E-03 1.519420113838E-01
C 1.496898395038E-01 4.925964853586E-01 -3.479928503594E-01
C -3.504458372988E-01 4.918532418751E-01 1.522069515990E-01
C -4.965994361783E-01 -2.964232414359E-01 -2.010694775317E-01
C 3.120562432693E-03 -2.962674221141E-01 2.986844545318E-01
C 3.567129561522E-03 2.037240643652E-01 -2.013400323045E-01
C -4.955271133509E-01 2.022475877746E-01 2.980777797948E-01
C -1.022904484308E-02 -2.983851807905E-01 -2.964693089558E-01
C 4.897461042263E-01 -2.990711885578E-01 2.037547905656E-01
C 4.891584764078E-01 2.021440818080E-01 -2.968505649814E-01
C -9.981466169687E-03 2.016093485500E-01 2.034943512809E-01
C -1.038427769673E-02 -2.041404817121E-01 -2.017685182758E-01
C 4.895534380976E-01 -2.048120992167E-01 2.983558619447E-01
C 4.890259785287E-01 2.959099423117E-01 -2.017513640365E-01
C -1.073260202995E-02 2.958363819053E-01 2.982459894948E-01
C -4.954446509583E-01 -2.032208719219E-01 -2.964806280171E-01
C 4.318142210848E-03 -2.030286032984E-01 2.033612741809E-01
C 4.151138041659E-03 2.970005343335E-01 -2.966086836721E-01
C -4.957537532260E-01 2.960912276122E-01 2.032795758735E-01
C -2.071474189826E-01 -4.923002286136E-01 -2.971892260443E-01
C 2.927371940926E-01 -4.925332809110E-01 2.027259423563E-01
C 2.937245411929E-01 7.339771423416E-03 -2.972533281736E-01
C -2.065192885491E-01 7.542766541438E-03 2.025250547810E-01
C -2.993234847632E-01 -8.457287791161E-03 -2.972026301231E-01
C 2.006850193036E-01 -8.985123420308E-03 2.028363339218E-01
C 2.001653766388E-01 4.912870630525E-01 -2.970542603479E-01
C -2.999905978128E-01 4.906205136459E-01 2.031261544107E-01
C -2.055510576130E-01 -8.022344913101E-03 -2.022021451553E-01
C 2.944312543607E-01 -8.798557618031E-03 2.977864821242E-01
C 2.939031743959E-01 4.917594080666E-01 -2.020205329437E-01
C -2.062678264311E-01 4.914846762114E-01 2.981020118304E-01
C -3.008572638893E-01 -4.927555471323E-01 -2.021158540251E-01
C 1.989991673628E-01 -4.926365498382E-01 2.977220258434E-01
C 1.998879910904E-01 7.214396511443E-03 -2.022944497951E-01
C -3.001828634716E-01 6.838411501263E-03 2.975713060447E-01
O 4.994903578065E-01 -4.052602899397E-01 -1.672689935136E-01
O -7.670089698231E-04 -4.051002895998E-01 3.324934562864E-01
O 6.270770732388E-05 9.487282254893E-02 -1.675732911922E-01
O 4.998654029959E-01 9.320150129112E-02 3.313830563653E-01
O -4.570340633300E-03 -4.076360940050E-01 -3.294792844495E-01
O 4.953966604984E-01 -4.083045715777E-01 1.707357763619E-01
O 4.963722244813E-01 9.324323543042E-02 -3.303261872706E-01
O -4.006845163649E-03 9.236947485173E-02 1.704465999179E-01
O 8.694260102077E-02 -3.264519840047E-01 -4.998693167060E-01
O -4.128368779404E-01 -3.269497159724E-01 5.189129510919E-04
O -4.125458776951E-01 1.736091700567E-01 -4.982041055215E-01
O 8.764859031613E-02 1.735181609142E-01 1.215742974982E-04
O 4.070867365938E-01 -1.755278220605E-01 -4.980272506204E-01
O -9.305551136878E-02 -1.750590010394E-01 1.872580451687E-03
O -9.370905644502E-02 3.249246747485E-01 -4.980498968685E-01
O 4.060865475386E-01 3.247139577825E-01 2.021490595079E-03
O -1.761592404205E-01 -4.918123261565E-01 -4.050455363199E-01
O 3.238195113314E-01 -4.920668180674E-01 9.489358713111E-02
O 3.246804239192E-01 7.511412539249E-03 -4.050582881437E-01
O -1.754913332749E-01 8.148101195858E-03 9.468980496347E-02
O -3.302106341507E-01 -9.053357770710E-03 -4.050376390677E-01
O 1.698195026593E-01 -9.267967478562E-03 9.500719965780E-02
O 1.693043719124E-01 4.908197390180E-01 -4.049040077012E-01
O -3.308161450393E-01 4.900743339570E-01 9.528747468595E-02
O -1.771132671675E-01 -4.080603315710E-01 -4.999433991522E-01
O 3.230331492280E-01 -4.082305705344E-01 1.049333748791E-04
O 3.223603116016E-01 8.998298549495E-02 4.990125447781E-01
O -1.764286482635E-01 9.195955539165E-02 -1.633116115335E-04
O -3.277468888343E-01 -9.181676198113E-02 4.990248923396E-01
O 1.721791464580E-01 -9.137610737970E-02 -1.112240973784E-03
O 1.714029744078E-01 4.086572587283E-01 4.989016826863E-01
O -3.285655142493E-01 4.080673892795E-01 -9.617429637508E-04
O -4.932686429618E-01 -1.725653826163E-01 -4.044049794212E-01
O 6.602976639011E-03 -1.722633539892E-01 9.548341399800E-02
O 5.999427889133E-03 3.277723270714E-01 -4.044649331506E-01
O -4.940201989983E-01 3.272909761905E-01 9.549876097896E-02
O -1.015034251983E-02 -1.729821154187E-01 -9.396413456913E-02
O 4.897224742542E-01 -1.734944682727E-01 4.061094327587E-01
O 4.889198934186E-01 3.266984676496E-01 -9.388035367081E-02
O -1.087847452461E-02 3.269986903141E-01 4.060776748412E-01
O -4.097010406406E-01 -4.998506512288E-01 -1.685377209929E-01
O 9.014290325836E-02 -4.995253436845E-01 3.312897476664E-01
O 9.099756006312E-02 3.844664371184E-04 -1.687966049199E-01
O -4.089468591198E-01 -7.051490093709E-04 3.311089634788E-01
O -9.667645877409E-02 -9.258915191913E-04 -1.687955525465E-01
O 4.032800271832E-01 -1.741130658828E-03 3.311693734708E-01
O 4.027608138399E-01 4.989181486582E-01 -1.685696075348E-01
O -9.743223035674E-02 4.990260639701E-01 3.314405441250E-01
O 6.629672014990E-02 -7.069975807882E-02 -6.529362999893E-02
O -4.336575820762E-01 -7.146327436111E-02 4.346609429200E-01
O -4.344213883031E-01 4.289247760033E-01 -6.507922549570E-02
O 6.557736144381E-02 4.293087534729E-01 4.347552187628E-01
O 4.271336930217E-01 -6.959976815718E-02 -4.337627954450E-01
O -7.297256675955E-02 -6.906262862243E-02 6.618457515189E-02
O -7.360962875074E-02 4.309469062756E-01 -4.336618773577E-01
O 4.262845350096E-01 4.305391352893E-01 6.639149572590E-02
O 4.279704090182E-01 -4.317066687404E-01 -6.508111593024E-02
O -7.220072353628E-02 -4.314902440216E-01 4.347564483369E-01
O -7.146798844752E-02 6.850436591936E-02 -6.538394396287E-02
O 4.281588607352E-01 6.935981798195E-02 4.346305449284E-01
O 6.714108796524E-02 -4.320613822357E-01 -4.334591917940E-01
O -4.328013713766E-01 -4.326333811393E-01 6.681106824846E-02
O -4.326071231274E-01 6.797875544957E-02 -4.338615148986E-01
O 6.778000954098E-02 6.793235885645E-02 6.648877096662E-02
O -5.603684918945E-03 -9.495377598808E-02 -1.683446707575E-01
O 4.943568827607E-01 -9.562075124462E-02 3.315804166852E-01
O 4.938171369184E-01 4.049014443752E-01 -1.681187772084E-01
O -6.357548769025E-03 4.050364422526E-01 3.317230845014E-01
O 4.981297843440E-01 -9.446695881846E-02 -3.300974793808E-01
O -2.101344915585E-03 -9.426277992839E-02 1.698771811427E-01
O -2.626666995163E-03 4.057576081074E-01 -3.300319130895E-01
O 4.970793132085E-01 4.050310006865E-01 1.700714376944E-01
O -4.108667164791E-01 -1.775238506382E-01 -4.978849116515E-01
O 8.919271500859E-02 -1.769744395592E-01 1.973996662063E-03
O 8.849082816392E-02 3.230341357514E-01 -4.980094544909E-01
O -4.116436783437E-01 3.225097578451E-01 1.978135270581E-03
O -9.519497554162E-02 -3.222519698071E-01 4.991907472663E-01
O 4.050423465180E-01 -3.225287161654E-01 -5.738060719635E-04
O 4.054195089197E-01 1.757148435058E-01 -4.980902667168E-01
O -9.450369463625E-02 1.777201820156E-01 -9.266307576427E-04
O -1.745166151231E-01 -8.808086891555E-03 -9.433522425747E-02
O 3.255577977926E-01 -1.012370200143E-02 4.056094692703E-01
O 3.248893363922E-01 4.910296687443E-01 -9.414176852547E-02
O -1.752117254476E-01 4.910812953155E-01 4.059561251415E-01
O -3.318129099318E-01 -4.919490625161E-01 -9.422098192036E-02
O 1.680237908030E-01 -4.914537654495E-01 4.055902702695E-01
O 1.688463838598E-01 8.492581587264E-03 -9.445127800081E-02
O -3.311436601015E-01 7.922053127784E-03 4.054561106496E-01
O 1.731264654926E-01 -4.095143856758E-01 4.992451813209E-01
O -3.267560933119E-01 -4.101037586056E-01 -4.190920893234E-04
O -3.264788782945E-01 9.018744800554E-02 4.989105320878E-01
O 1.737935629578E-01 9.045374253196E-02 -7.820195086075E-04
O 3.210169588126E-01 -9.210284239349E-02 4.989868332461E-01
O -1.789008701761E-01 -9.154074531254E-02 -1.246004681171E-03
O -1.795752867888E-01 4.084257732234E-01 4.990863255371E-01
O 3.203233415625E-01 4.083008460470E-01 -1.081683454445E-03
O -8.673618029063E-03 -3.298536608801E-01 -4.040923522593E-01
O 4.914168471414E-01 -3.304668649411E-01 9.616278135791E-02
O 4.876290992735E-01 1.709260955051E-01 -4.047029948686E-01
O -8.065724618352E-03 1.701581901837E-01 9.585060228811E-02
O -4.998639322641E-01 -3.264946926118E-01 -9.300598958401E-02
O -1.569806133568E-04 -3.262899542255E-01 4.067206125390E-01
O 5.836277875305E-04 1.736748414136E-01 -9.332562066083E-02
O -4.951239860044E-01 1.714088892757E-01 4.058712044468E-01
O -4.083812199581E-01 -3.602826055354E-03 -3.305983999147E-01
O 9.165696627683E-02 -4.055296852117E-03 1.694693030803E-01
O 9.113157716906E-02 4.959835552718E-01 -3.304326594397E-01
O -4.090093491536E-01 4.952550681279E-01 1.697314652579E-01
O 4.028189795484E-01 2.469621118609E-03 -3.306037518514E-01
O -9.752305786620E-02 2.167458764960E-03 1.692346397495E-01
O -9.814983924498E-02 -4.978468874663E-01 -3.305479550444E-01
O 4.017359730439E-01 -4.983085284706E-01 1.694571950299E-01
O -5.271839028422E-02 -4.496237417246E-01 -4.496107554382E-01
O 4.473761833483E-01 -4.500853520886E-01 5.052686906817E-02
O 4.481296590467E-01 4.941711548337E-02 -4.500778353548E-01
O -5.205611420521E-02 5.036457864645E-02 5.025660881568E-02
O -4.533721187712E-01 -4.514083213757E-01 -4.840163407840E-02
O 4.644712019580E-02 -4.510666600909E-01 4.513773179765E-01
O 4.717387880421E-02 4.891890596735E-02 -4.869029429435E-02
O -4.527330617543E-01 4.785678606565E-02 4.508787431124E-01
O -4.536128856007E-01 -5.109350899349E-02 -4.500439524023E-01
O 4.617673954430E-02 -5.066906918612E-02 4.992109698605E-02
O 4.553149610940E-02 4.493481779833E-01 -4.500019599613E-01
O -4.545092933546E-01 4.488382501192E-01 5.014277170376E-02
O -5.284274356908E-02 -4.971846237701E-02 -4.888263694249E-02
O 4.472250113061E-01 -4.991337281472E-02 4.509720602695E-01
O 4.465002060909E-01 4.500228178157E-01 -4.865640947861E-02
O -5.353825117974E-02 4.503023866066E-01 4.512643184601E-01
H -4.984743573524E-01 -3.673499935575E-01 -2.756930821840E-01
H 1.235859681142E-03 -3.671687983777E-01 2.240227222555E-01
H 1.566837416867E-03 1.328443272111E-01 -2.760087022936E-01
H -4.953248055360E-01 1.317697580920E-01 2.229954946776E-01
H -6.344798159587E-03 -3.685053704712E-01 -2.214379763908E-01
H 4.936005177689E-01 -3.691792159413E-01 2.788033217091E-01
H 4.900493857567E-01 1.316188936458E-01 -2.221035725550E-01
H -5.877966024965E-03 1.314975125560E-01 2.785183603606E-01
H -1.372475695339E-02 -1.340444972385E-01 -2.768840519002E-01
H 4.862417210565E-01 -1.347321233088E-01 2.232222923806E-01
H 4.891439274300E-01 3.664392691365E-01 -2.764935417618E-01
H -1.424034261825E-02 3.659297643959E-01 2.231387864258E-01
H -4.941005691176E-01 -1.322408739544E-01 -2.218980200095E-01
H 5.667027312718E-03 -1.320771508022E-01 2.779777328459E-01
H 5.565592632737E-03 3.679301915225E-01 -2.219850487349E-01
H -4.969785315223E-01 3.665648773920E-01 2.783598980658E-01
H -2.864288094104E-01 -4.934797243043E-01 -3.632819531167E-01
H 2.134875034230E-01 -4.933786202016E-01 1.365767564608E-01
H 2.145152149560E-01 5.554848537921E-03 -3.634239081252E-01
H -2.857793852308E-01 5.652447776107E-03 1.364210025110E-01
H -2.200413907310E-01 -8.801478147626E-03 -3.633432531095E-01
H 2.799391060070E-01 -8.809514283419E-03 1.366656798322E-01
H 2.794433838312E-01 4.915312543885E-01 -3.631750422519E-01
H -2.207317711832E-01 4.906565670402E-01 1.369715337100E-01
H -2.848527022769E-01 -6.383536511247E-03 -1.360684312254E-01
H 2.151691857211E-01 -7.563094722102E-03 3.639600501101E-01
H 2.145773896592E-01 4.929220740619E-01 -1.359137775548E-01
H -2.855703017186E-01 4.927411369767E-01 3.642446357564E-01
H -2.215269014508E-01 -4.928148679140E-01 -1.360486078172E-01
H 2.782908362932E-01 -4.931961225414E-01 3.638449434231E-01
H 2.791235452047E-01 7.575057217253E-03 -1.361237678145E-01
H -2.208740839577E-01 7.527008555646E-03 3.636565567813E-01
H -4.978002391301E-01 -2.828524113082E-01 -3.622842286819E-01
H 1.936932837954E-03 -2.826015474621E-01 1.374811975559E-01
H 1.714936282841E-03 2.174680957701E-01 -3.625247326678E-01
H -4.958312243161E-01 2.168176517679E-01 1.369714140874E-01
H -1.384788509683E-02 -2.198012019108E-01 -3.629389520145E-01
H 4.861390270332E-01 -2.205531645499E-01 1.372119916793E-01
H 4.895650393818E-01 2.813577137409E-01 -3.629025733897E-01
H -1.383810102710E-02 2.802176399131E-01 1.370639986497E-01
H -6.350146548723E-03 -2.830318500473E-01 -1.354253146496E-01
H 4.936043919391E-01 -2.836391578109E-01 3.647736550046E-01
H 4.900884756315E-01 2.167071317881E-01 -1.357028626609E-01
H -6.425635624763E-03 2.169237415355E-01 3.645468841409E-01
H -4.948607391335E-01 -2.165577585249E-01 -1.353421888263E-01
H 4.875359981565E-03 -2.164590860863E-01 3.644827314914E-01
H 5.342065015257E-03 2.834945444378E-01 -1.355044665938E-01
H -4.968890734122E-01 2.815067298861E-01 3.643855799622E-01
H -3.714137023487E-01 -4.937868254049E-01 -2.769726802626E-01
H 1.284552807733E-01 -4.933866299027E-01 2.228376073629E-01
H 1.294219567546E-01 5.580248658117E-03 -2.772218837262E-01
H -3.707571315052E-01 5.081361655407E-03 2.227445221796E-01
H -3.698507787953E-01 -7.025398977677E-03 -2.223159112804E-01
H 1.301359385785E-01 -7.985094893616E-03 2.777188897138E-01
H 1.296052231515E-01 4.922522572050E-01 -2.221970080195E-01
H -3.705620928859E-01 4.916549391462E-01 2.779818314807E-01
H -1.350264836470E-01 -8.602474749446E-03 -2.771331716704E-01
H 3.649746881483E-01 -8.773140414156E-03 2.228784791058E-01
H 3.644551353602E-01 4.917304009196E-01 -2.769209114940E-01
H -1.357113747085E-01 4.912314556829E-01 2.232003522804E-01
H -1.365658995531E-01 -4.920283374385E-01 -2.223851795453E-01
H 3.632946861025E-01 -4.927494747067E-01 2.775694455885E-01
H 3.642064445079E-01 7.993407987777E-03 -2.223440249167E-01
H -1.359217035215E-01 8.498722128512E-03 2.772985957646E-01
H 3.995744222380E-01 -4.054693536163E-01 -9.103103052295E-02
H -1.006426367149E-01 -4.053424214561E-01 4.087681895714E-01
H -9.991762023302E-02 9.470369658472E-02 -9.131405681341E-02
H 4.000008136631E-01 9.637882557997E-02 4.090513282750E-01
H 9.382234900433E-02 -4.038667317932E-01 -4.077163575395E-01
H -4.061030001622E-01 -4.045206841066E-01 9.262316207207E-02
H -4.056257126626E-01 9.609997205640E-02 -4.083338633657E-01
H 9.444157618367E-02 9.609551479997E-02 9.228892560492E-02
H 9.437399143263E-02 -9.772617119516E-02 -9.105943785267E-02
H -4.056219020324E-01 -9.861945800432E-02 4.089837032770E-01
H -4.062349826743E-01 4.020020561327E-01 -9.083232947498E-02
H 9.370047112243E-02 4.023236370513E-01 4.089869372168E-01
H 4.000705741306E-01 -9.758456432711E-02 -4.082775721195E-01
H -1.001630454398E-01 -9.681452639916E-02 9.178551257947E-02
H -1.007891012265E-01 4.032090370702E-01 -4.080365872390E-01
H 3.991654908388E-01 4.027466084921E-01 9.203077068090E-02
H 8.991211496455E-02 -2.966418670956E-01 4.649313281651E-01
H -4.098222794705E-01 -2.971008254284E-01 -3.464525987211E-02
H -4.095249632702E-01 2.039418475989E-01 4.670067344413E-01
H 9.063972370883E-02 2.034190027016E-01 -3.499901211323E-02
H 4.041252156799E-01 -2.059869947380E-01 4.671604972016E-01
H -9.598286132071E-02 -2.054469692175E-01 -3.300183492518E-02
H -9.664944941364E-02 2.946656454991E-01 4.669669936441E-01
H 4.030464502002E-01 2.941463864799E-01 -3.268164174069E-02
H -2.055245998981E-01 -4.043222038503E-01 -4.635819662069E-01
H 2.945692686865E-01 -4.045058308756E-01 3.642984198708E-02
H 2.918130943312E-01 9.319451407618E-02 -4.663074297094E-01
H -2.048746141782E-01 9.567364571024E-02 3.617572542209E-02
H -2.975151348120E-01 -9.482277613789E-02 -4.660276922594E-01
H 2.022791300526E-01 -9.441326365348E-02 3.394617521803E-02
H 2.018506443885E-01 4.055883805896E-01 -4.663434428173E-01
H -2.984329100112E-01 4.049074154484E-01 3.405782595523E-02
H 1.393405102847E-01 1.302684480287E-01 -4.599323394535E-04
H 1.965473404288E-01 9.149356447967E-02 -4.100397982504E-02
H 1.282930306218E-01 3.572197584991E-01 -4.992506132752E-01
H 9.018527265006E-02 3.006558982438E-01 -4.576547834602E-01
H 4.039660011094E-01 1.980871203197E-01 -4.576264839734E-01
H 3.656745016895E-01 1.416843756962E-01 -4.992152888203E-01
H 2.979227284573E-01 4.068227780130E-01 -4.146848813373E-02
H 3.545162354394E-01 3.683000266826E-01 8.305073726135E-05
H -3.606933829105E-01 1.300612755157E-01 -4.999601224687E-01
H -3.042021877159E-01 9.149625701309E-02 4.584367020500E-01
H -1.003100895914E-01 2.062394941551E-01 -3.681304272326E-02
H -1.345170046259E-01 1.428459436259E-01 3.042214485688E-04
H -2.021101100656E-01 4.068682618733E-01 4.587704513626E-01
H -1.452941552541E-01 3.684712003316E-01 -4.998607664990E-01
H -3.718480547191E-01 3.566641728780E-01 8.120107771901E-04
H -4.100349794631E-01 3.001930152612E-01 4.238121648970E-02
H 3.650163693083E-01 -3.573694791512E-01 6.125888189063E-04
H 3.992968224064E-01 -2.940283769681E-01 -3.648467172931E-02
H 1.386749525894E-01 -3.697172077219E-01 4.995460028894E-01
H 1.958786571141E-01 -4.084926539930E-01 4.590162666997E-01
H 9.090082119731E-02 -1.993396037390E-01 4.233966659194E-02
H 1.289764341876E-01 -1.427758188454E-01 7.464681848744E-04
H 2.987419421232E-01 -9.356791362765E-02 4.585184391569E-01
H 3.552145426276E-01 -1.319696115981E-01 -4.998799507720E-01
H -3.711610950790E-01 -1.434683662503E-01 -4.990963906362E-01
H -4.093224473874E-01 -1.997230155213E-01 -4.574207234160E-01
H -3.611771461556E-01 -3.702653828873E-01 -8.167013674737E-05
H -3.039725055586E-01 -4.090349251131E-01 -4.062717417867E-02
H -1.010158561558E-01 -2.938371772254E-01 4.632256767766E-01
H -1.351571634117E-01 -3.571441325654E-01 -4.995464691467E-01
H -2.013281388178E-01 -9.308546021676E-02 -4.161780680330E-02
H -1.446523214840E-01 -1.315045564524E-01 -8.658556256159E-05
ZR -2.667705373111E-03 -5.785245595888E-04 -1.171215741214E-01
ZR 4.971836963842E-01 -1.182110232214E-03 3.823072464538E-01
ZR 4.967193104770E-01 4.992714548573E-01 -1.168113219047E-01
ZR -3.415566006198E-03 4.994218057578E-01 3.829346372593E-01
ZR 4.972405369228E-01 -6.611915152933E-04 -3.816049952393E-01
ZR -2.791628048009E-03 -3.304953305001E-04 1.187556269815E-01
ZR -3.422380052178E-03 4.996758376512E-01 -3.811856525060E-01
ZR 4.964956378518E-01 4.990195979147E-01 1.190573746136E-01
ZR 4.951548691103E-01 -1.225808584218E-01 4.999048308985E-01
ZR -4.808732837572E-03 -1.222585052847E-01 -4.454474088277E-07
ZR -5.482062792960E-03 3.777554531534E-01 -4.999674343678E-01
ZR 4.944237789989E-01 3.773716711734E-01 2.365917723001E-04
ZR -1.748242653050E-03 -3.783292257329E-01 -4.989862592658E-01
ZR 4.984090448767E-01 -3.787204659747E-01 1.325421786943E-03
ZR 4.993457189433E-01 1.207069948096E-01 4.998133647507E-01
ZR -1.063611483099E-03 1.216715883564E-01 9.834787719857E-04
ZR 3.755823389636E-01 1.649402728662E-03 -4.990796130080E-01
ZR -1.243277838278E-01 2.143740975023E-03 1.092101818670E-03
ZR -1.250237052387E-01 -4.978639108801E-01 -4.987303311493E-01
ZR 3.750187511381E-01 -4.981003504622E-01 1.354994941267E-03
ZR -3.810975573522E-01 -3.511410972802E-03 -4.991374440794E-01
ZR 1.188033334818E-01 -2.924535846583E-03 1.113696741163E-03
ZR 1.181210713400E-01 4.971063204656E-01 -4.988893207233E-01
ZR -3.818315988015E-01 4.965669955758E-01 1.381020093212E-03


