data_foo_73
_symmetry_space_group_name_H-M 'P -4 2 M'
_space_group_IT_number         111
_cell_length_a                 20.72576777
_cell_length_b                 20.72576777
_cell_length_c                 20.72272575
_cell_angle_alpha              90.000000
_cell_angle_beta               90.000000
_cell_angle_gamma              90.000000
loop_
_atom_site_type_symbol
_atom_site_fract_x
_atom_site_fract_y
_atom_site_fract_z
C 2.433466689811E-01 -4.351014423877E-01 1.769274018465E-02
C 4.019476314402E-01 -4.019476314402E-01 -2.539190254507E-01
C -4.731391364634E-02 4.527376515966E-01 -2.437204446754E-01
C 6.489914103762E-02 4.823178851879E-01 -2.433532159557E-01
C -1.761280164279E-02 -4.350779404931E-01 -2.433506744203E-01
C -9.872366581592E-02 9.872366581592E-02 -2.560678751898E-01
C -9.808529063770E-02 -4.020065871211E-01 2.459368080216E-01
C 2.459431072389E-01 4.018918804733E-01 9.800578877851E-02
C 2.462169865688E-01 -9.813103345276E-02 -4.020213766445E-01
C -2.540085307658E-01 4.019591259290E-01 -4.019190953849E-01
C -2.538943097146E-01 -9.800899544522E-02 9.809660267504E-02
C 4.527054755666E-01 4.527054755666E-01 2.560997532775E-01
C -4.350924860599E-01 4.823562829655E-01 2.564615288389E-01
C 4.726751802483E-02 2.561437288614E-01 4.732020715673E-02
C -1.767616560183E-02 2.564986831168E-01 6.492370170220E-02
C 6.491267156759E-02 2.565135762379E-01 -1.762191497710E-02
C 4.733583876320E-02 -2.441378084177E-01 -4.527525807657E-01
C -1.758326608517E-02 -2.437733373604E-01 -4.350483565941E-01
C 6.489148545976E-02 -2.437931816052E-01 4.822804477386E-01
C -4.527129794644E-01 2.561812943093E-01 -4.526906696339E-01
C 4.823457411696E-01 2.565362639929E-01 -4.350851651240E-01
C -4.350893124215E-01 2.565371483794E-01 4.823641343298E-01
C -4.526715194557E-01 -2.437182837902E-01 4.726522472768E-02
C 4.824016462810E-01 -2.433479392489E-01 6.492750880443E-02
H 3.840967441489E-01 -2.564170968770E-01 4.700956468836E-01
H -4.700601954717E-01 -2.564158541114E-01 -3.840900263162E-01
H 4.701635589417E-01 2.434585919485E-01 -1.159336836782E-01
H -3.841199000775E-01 2.434576376065E-01 3.000674204218E-02
H -2.997697035689E-02 -2.563204666539E-01 -1.159180552671E-01
H -2.437877483400E-01 -2.979907875399E-02 -3.840323825602E-01
H -2.438960520818E-01 1.158676105674E-01 4.699405748403E-01
H 1.159066943837E-01 -2.563980310782E-01 2.988330209944E-02
H -3.840815028449E-01 2.986415370106E-02 2.434672224170E-01
H 4.700155672108E-01 -1.158825336094E-01 2.434726119060E-01
H -3.841022446653E-01 -4.700816156011E-01 -2.563494985346E-01
H -6.123960718326E-02 6.123960718326E-02 -2.613602734570E-01
H 1.560752441437E-01 3.439942386964E-01 3.439477255434E-01
H 1.559328563985E-01 -1.559328563985E-01 -1.561194196594E-01
H -3.439112459092E-01 3.439112459092E-01 -1.559562012541E-01
O -1.560891575779E-01 -4.206003201053E-01 2.475138415037E-01
O -1.558719386277E-01 7.891816194548E-02 -2.530637777158E-01
O 3.439436579159E-01 -4.205533101043E-01 -2.523888971317E-01
O 3.440001334138E-01 7.948233733957E-02 2.474542480243E-01
O 4.205002059751E-01 2.475147984516E-01 1.560164882631E-01
O 4.205709094683E-01 -2.524781452731E-01 -3.439057775276E-01
O -7.955614289131E-02 2.477116608226E-01 -3.440028015763E-01
O -7.940081569449E-02 -2.522759839389E-01 1.561107156828E-01
O -2.476363588810E-01 1.561355797740E-01 -4.206406962248E-01
O -2.474762483859E-01 -3.438875755568E-01 7.939624232906E-02
O 2.523593616603E-01 1.560144909221E-01 7.950203957486E-02
O 2.524796937584E-01 -3.439551384909E-01 -4.205207536310E-01
O -2.003117078685E-01 2.003117078685E-01 -2.995931308647E-01
O -2.003939420051E-01 -2.995288682201E-01 2.004214910345E-01
O 2.995502692375E-01 -2.995502692375E-01 -2.995162935527E-01
O 1.827291275142E-01 1.827291275142E-01 1.830075686410E-01
O 1.828798691366E-01 -3.171546963474E-01 -3.171034562244E-01
O -3.170999971137E-01 -3.170999971137E-01 1.828210162204E-01
ZR -2.500040272263E-01 2.500040272263E-01 -3.700884920137E-01
ZR -2.499484332541E-01 -2.499484332541E-01 1.298869405214E-01
ZR -2.500081347761E-01 -3.701235927045E-01 2.499672002690E-01
ZR -2.501220330506E-01 1.298235320089E-01 -2.500092443019E-01
# Energy: -1.0144828469973E+05

